
---------- Begin Simulation Statistics ----------
final_tick                                   40888500                       # Number of ticks from beginning of simulation (restored from checkpoints and never reset)
host_inst_rate                                 125532                       # Simulator instruction rate (inst/s)
host_mem_usage                                 653656                       # Number of bytes of host memory used
host_op_rate                                   142807                       # Simulator op (including micro ops) rate (op/s)
host_seconds                                     0.11                       # Real time elapsed on the host
host_tick_rate                              363042334                       # Simulator tick rate (ticks/s)
sim_freq                                 1000000000000                       # Frequency of simulated ticks
sim_insts                                       14127                       # Number of instructions simulated
sim_ops                                         16082                       # Number of ops (including micro ops) simulated
sim_seconds                                  0.000041                       # Number of seconds simulated
sim_ticks                                    40888500                       # Number of ticks simulated
system.cpu.committedInsts                       14127                       # Number of instructions committed
system.cpu.committedOps                         16082                       # Number of ops (including micro ops) committed
system.cpu.cpi                               5.788702                       # CPI: cycles per instruction
system.cpu.discardedOps                          2821                       # Number of ops (including micro ops) which were discarded before commit
system.cpu.idleCycles                           57383                       # Total number of cycles that the object has spent stopped
system.cpu.ipc                               0.172750                       # IPC: instructions per cycle
system.cpu.numCycles                            81777                       # number of cpu cycles simulated
system.cpu.numFetchSuspends                         0                       # Number of times Execute suspended instruction fetching
system.cpu.numWorkItemsCompleted                    0                       # number of work items this cpu completed
system.cpu.numWorkItemsStarted                      0                       # number of work items this cpu started
system.cpu.op_class_0::No_OpClass                   0      0.00%      0.00% # Class of committed instruction
system.cpu.op_class_0::IntAlu                   11518     71.62%     71.62% # Class of committed instruction
system.cpu.op_class_0::IntMult                     57      0.35%     71.97% # Class of committed instruction
system.cpu.op_class_0::IntDiv                       0      0.00%     71.97% # Class of committed instruction
system.cpu.op_class_0::FloatAdd                     0      0.00%     71.97% # Class of committed instruction
system.cpu.op_class_0::FloatCmp                     0      0.00%     71.97% # Class of committed instruction
system.cpu.op_class_0::FloatCvt                     0      0.00%     71.97% # Class of committed instruction
system.cpu.op_class_0::FloatMult                    0      0.00%     71.97% # Class of committed instruction
system.cpu.op_class_0::FloatMultAcc                 0      0.00%     71.97% # Class of committed instruction
system.cpu.op_class_0::FloatDiv                     0      0.00%     71.97% # Class of committed instruction
system.cpu.op_class_0::FloatMisc                    0      0.00%     71.97% # Class of committed instruction
system.cpu.op_class_0::FloatSqrt                    0      0.00%     71.97% # Class of committed instruction
system.cpu.op_class_0::SimdAdd                      0      0.00%     71.97% # Class of committed instruction
system.cpu.op_class_0::SimdAddAcc                   0      0.00%     71.97% # Class of committed instruction
system.cpu.op_class_0::SimdAlu                      0      0.00%     71.97% # Class of committed instruction
system.cpu.op_class_0::SimdCmp                      0      0.00%     71.97% # Class of committed instruction
system.cpu.op_class_0::SimdCvt                      0      0.00%     71.97% # Class of committed instruction
system.cpu.op_class_0::SimdMisc                     0      0.00%     71.97% # Class of committed instruction
system.cpu.op_class_0::SimdMult                     0      0.00%     71.97% # Class of committed instruction
system.cpu.op_class_0::SimdMultAcc                  0      0.00%     71.97% # Class of committed instruction
system.cpu.op_class_0::SimdShift                    0      0.00%     71.97% # Class of committed instruction
system.cpu.op_class_0::SimdShiftAcc                 0      0.00%     71.97% # Class of committed instruction
system.cpu.op_class_0::SimdDiv                      0      0.00%     71.97% # Class of committed instruction
system.cpu.op_class_0::SimdSqrt                     0      0.00%     71.97% # Class of committed instruction
system.cpu.op_class_0::SimdFloatAdd                 0      0.00%     71.97% # Class of committed instruction
system.cpu.op_class_0::SimdFloatAlu                 0      0.00%     71.97% # Class of committed instruction
system.cpu.op_class_0::SimdFloatCmp                 0      0.00%     71.97% # Class of committed instruction
system.cpu.op_class_0::SimdFloatCvt                 2      0.01%     71.99% # Class of committed instruction
system.cpu.op_class_0::SimdFloatDiv                 0      0.00%     71.99% # Class of committed instruction
system.cpu.op_class_0::SimdFloatMisc                4      0.02%     72.01% # Class of committed instruction
system.cpu.op_class_0::SimdFloatMult                0      0.00%     72.01% # Class of committed instruction
system.cpu.op_class_0::SimdFloatMultAcc             0      0.00%     72.01% # Class of committed instruction
system.cpu.op_class_0::SimdFloatSqrt                0      0.00%     72.01% # Class of committed instruction
system.cpu.op_class_0::SimdReduceAdd                0      0.00%     72.01% # Class of committed instruction
system.cpu.op_class_0::SimdReduceAlu                0      0.00%     72.01% # Class of committed instruction
system.cpu.op_class_0::SimdReduceCmp                0      0.00%     72.01% # Class of committed instruction
system.cpu.op_class_0::SimdFloatReduceAdd            0      0.00%     72.01% # Class of committed instruction
system.cpu.op_class_0::SimdFloatReduceCmp            0      0.00%     72.01% # Class of committed instruction
system.cpu.op_class_0::SimdAes                      0      0.00%     72.01% # Class of committed instruction
system.cpu.op_class_0::SimdAesMix                   0      0.00%     72.01% # Class of committed instruction
system.cpu.op_class_0::SimdSha1Hash                 0      0.00%     72.01% # Class of committed instruction
system.cpu.op_class_0::SimdSha1Hash2                0      0.00%     72.01% # Class of committed instruction
system.cpu.op_class_0::SimdSha256Hash               0      0.00%     72.01% # Class of committed instruction
system.cpu.op_class_0::SimdSha256Hash2              0      0.00%     72.01% # Class of committed instruction
system.cpu.op_class_0::SimdShaSigma2                0      0.00%     72.01% # Class of committed instruction
system.cpu.op_class_0::SimdShaSigma3                0      0.00%     72.01% # Class of committed instruction
system.cpu.op_class_0::SimdPredAlu                  0      0.00%     72.01% # Class of committed instruction
system.cpu.op_class_0::MemRead                   2403     14.94%     86.95% # Class of committed instruction
system.cpu.op_class_0::MemWrite                  2098     13.05%    100.00% # Class of committed instruction
system.cpu.op_class_0::FloatMemRead                 0      0.00%    100.00% # Class of committed instruction
system.cpu.op_class_0::FloatMemWrite                0      0.00%    100.00% # Class of committed instruction
system.cpu.op_class_0::IprAccess                    0      0.00%    100.00% # Class of committed instruction
system.cpu.op_class_0::InstPrefetch                 0      0.00%    100.00% # Class of committed instruction
system.cpu.op_class_0::total                    16082                       # Class of committed instruction
system.cpu.tickCycles                           24394                       # Number of cycles that the object actually ticked
system.cpu.workload.numSyscalls                    13                       # Number of system calls
system.membus.snoop_filter.hit_multi_requests            0                       # Number of requests hitting in the snoop filter with multiple (>1) holders of the requested data.
system.membus.snoop_filter.hit_multi_snoops            0                       # Number of snoops hitting in the snoop filter with multiple (>1) holders of the requested data.
system.membus.snoop_filter.hit_single_requests            0                       # Number of requests hitting in the snoop filter with a single holder of the requested data.
system.membus.snoop_filter.hit_single_snoops            0                       # Number of snoops hitting in the snoop filter with a single holder of the requested data.
system.membus.snoop_filter.tot_requests           338                       # Total number of requests made to the snoop filter.
system.membus.snoop_filter.tot_snoops               0                       # Total number of snoops made to the snoop filter.
system.tol2bus.snoop_filter.hit_multi_requests           20                       # Number of requests hitting in the snoop filter with multiple (>1) holders of the requested data.
system.tol2bus.snoop_filter.hit_multi_snoops            0                       # Number of snoops hitting in the snoop filter with multiple (>1) holders of the requested data.
system.tol2bus.snoop_filter.hit_single_requests          198                       # Number of requests hitting in the snoop filter with a single holder of the requested data.
system.tol2bus.snoop_filter.hit_single_snoops            0                       # Number of snoops hitting in the snoop filter with a single holder of the requested data.
system.tol2bus.snoop_filter.tot_requests          599                       # Total number of requests made to the snoop filter.
system.tol2bus.snoop_filter.tot_snoops              0                       # Total number of snoops made to the snoop filter.
system.clk_domain.clock                          1000                       # Clock period in ticks
system.cpu.branchPred.lookups                    4779                       # Number of BP lookups
system.cpu.branchPred.condPredicted              3150                       # Number of conditional branches predicted
system.cpu.branchPred.condIncorrect               836                       # Number of conditional branches incorrect
system.cpu.branchPred.BTBLookups                 2444                       # Number of BTB lookups
system.cpu.branchPred.BTBHits                    1024                       # Number of BTB hits
system.cpu.branchPred.BTBHitPct             41.898527                       # BTB Hit Percentage
system.cpu.branchPred.RASUsed                     386                       # Number of times the RAS was used to get a target.
system.cpu.branchPred.RASIncorrect                  2                       # Number of incorrect RAS predictions.
system.cpu.branchPred.indirectLookups             147                       # Number of indirect predictor lookups.
system.cpu.branchPred.indirectHits                 16                       # Number of indirect target hits.
system.cpu.branchPred.indirectMisses              131                       # Number of indirect misses.
system.cpu.branchPred.indirectMispredicted           64                       # Number of mispredicted indirect branches.
system.cpu.dcache.demand_hits::.cpu.data         4581                       # number of demand (read+write) hits
system.cpu.dcache.demand_hits::total             4581                       # number of demand (read+write) hits
system.cpu.dcache.overall_hits::.cpu.data         4641                       # number of overall hits
system.cpu.dcache.overall_hits::total            4641                       # number of overall hits
system.cpu.dcache.demand_misses::.cpu.data          133                       # number of demand (read+write) misses
system.cpu.dcache.demand_misses::total            133                       # number of demand (read+write) misses
system.cpu.dcache.overall_misses::.cpu.data          149                       # number of overall misses
system.cpu.dcache.overall_misses::total           149                       # number of overall misses
system.cpu.dcache.demand_miss_latency::.cpu.data     11843000                       # number of demand (read+write) miss cycles
system.cpu.dcache.demand_miss_latency::total     11843000                       # number of demand (read+write) miss cycles
system.cpu.dcache.overall_miss_latency::.cpu.data     11843000                       # number of overall miss cycles
system.cpu.dcache.overall_miss_latency::total     11843000                       # number of overall miss cycles
system.cpu.dcache.demand_accesses::.cpu.data         4714                       # number of demand (read+write) accesses
system.cpu.dcache.demand_accesses::total         4714                       # number of demand (read+write) accesses
system.cpu.dcache.overall_accesses::.cpu.data         4790                       # number of overall (read+write) accesses
system.cpu.dcache.overall_accesses::total         4790                       # number of overall (read+write) accesses
system.cpu.dcache.demand_miss_rate::.cpu.data     0.028214                       # miss rate for demand accesses
system.cpu.dcache.demand_miss_rate::total     0.028214                       # miss rate for demand accesses
system.cpu.dcache.overall_miss_rate::.cpu.data     0.031106                       # miss rate for overall accesses
system.cpu.dcache.overall_miss_rate::total     0.031106                       # miss rate for overall accesses
system.cpu.dcache.demand_avg_miss_latency::.cpu.data 89045.112782                       # average overall miss latency
system.cpu.dcache.demand_avg_miss_latency::total 89045.112782                       # average overall miss latency
system.cpu.dcache.overall_avg_miss_latency::.cpu.data 79483.221477                       # average overall miss latency
system.cpu.dcache.overall_avg_miss_latency::total 79483.221477                       # average overall miss latency
system.cpu.dcache.blocked_cycles::no_mshrs            0                       # number of cycles access was blocked
system.cpu.dcache.blocked_cycles::no_targets            0                       # number of cycles access was blocked
system.cpu.dcache.blocked::no_mshrs                 0                       # number of cycles access was blocked
system.cpu.dcache.blocked::no_targets               0                       # number of cycles access was blocked
system.cpu.dcache.avg_blocked_cycles::no_mshrs          nan                       # average number of cycles each access was blocked
system.cpu.dcache.avg_blocked_cycles::no_targets          nan                       # average number of cycles each access was blocked
system.cpu.dcache.writebacks::.writebacks            2                       # number of writebacks
system.cpu.dcache.writebacks::total                 2                       # number of writebacks
system.cpu.dcache.demand_mshr_hits::.cpu.data           31                       # number of demand (read+write) MSHR hits
system.cpu.dcache.demand_mshr_hits::total           31                       # number of demand (read+write) MSHR hits
system.cpu.dcache.overall_mshr_hits::.cpu.data           31                       # number of overall MSHR hits
system.cpu.dcache.overall_mshr_hits::total           31                       # number of overall MSHR hits
system.cpu.dcache.demand_mshr_misses::.cpu.data          102                       # number of demand (read+write) MSHR misses
system.cpu.dcache.demand_mshr_misses::total          102                       # number of demand (read+write) MSHR misses
system.cpu.dcache.overall_mshr_misses::.cpu.data          110                       # number of overall MSHR misses
system.cpu.dcache.overall_mshr_misses::total          110                       # number of overall MSHR misses
system.cpu.dcache.demand_mshr_miss_latency::.cpu.data      9059000                       # number of demand (read+write) MSHR miss cycles
system.cpu.dcache.demand_mshr_miss_latency::total      9059000                       # number of demand (read+write) MSHR miss cycles
system.cpu.dcache.overall_mshr_miss_latency::.cpu.data      9900500                       # number of overall MSHR miss cycles
system.cpu.dcache.overall_mshr_miss_latency::total      9900500                       # number of overall MSHR miss cycles
system.cpu.dcache.demand_mshr_miss_rate::.cpu.data     0.021638                       # mshr miss rate for demand accesses
system.cpu.dcache.demand_mshr_miss_rate::total     0.021638                       # mshr miss rate for demand accesses
system.cpu.dcache.overall_mshr_miss_rate::.cpu.data     0.022965                       # mshr miss rate for overall accesses
system.cpu.dcache.overall_mshr_miss_rate::total     0.022965                       # mshr miss rate for overall accesses
system.cpu.dcache.demand_avg_mshr_miss_latency::.cpu.data 88813.725490                       # average overall mshr miss latency
system.cpu.dcache.demand_avg_mshr_miss_latency::total 88813.725490                       # average overall mshr miss latency
system.cpu.dcache.overall_avg_mshr_miss_latency::.cpu.data 90004.545455                       # average overall mshr miss latency
system.cpu.dcache.overall_avg_mshr_miss_latency::total 90004.545455                       # average overall mshr miss latency
system.cpu.dcache.replacements                      4                       # number of replacements
system.cpu.dcache.ReadReq_hits::.cpu.data         2612                       # number of ReadReq hits
system.cpu.dcache.ReadReq_hits::total            2612                       # number of ReadReq hits
system.cpu.dcache.ReadReq_misses::.cpu.data           82                       # number of ReadReq misses
system.cpu.dcache.ReadReq_misses::total            82                       # number of ReadReq misses
system.cpu.dcache.ReadReq_miss_latency::.cpu.data      6841500                       # number of ReadReq miss cycles
system.cpu.dcache.ReadReq_miss_latency::total      6841500                       # number of ReadReq miss cycles
system.cpu.dcache.ReadReq_accesses::.cpu.data         2694                       # number of ReadReq accesses(hits+misses)
system.cpu.dcache.ReadReq_accesses::total         2694                       # number of ReadReq accesses(hits+misses)
system.cpu.dcache.ReadReq_miss_rate::.cpu.data     0.030438                       # miss rate for ReadReq accesses
system.cpu.dcache.ReadReq_miss_rate::total     0.030438                       # miss rate for ReadReq accesses
system.cpu.dcache.ReadReq_avg_miss_latency::.cpu.data 83432.926829                       # average ReadReq miss latency
system.cpu.dcache.ReadReq_avg_miss_latency::total 83432.926829                       # average ReadReq miss latency
system.cpu.dcache.ReadReq_mshr_hits::.cpu.data           11                       # number of ReadReq MSHR hits
system.cpu.dcache.ReadReq_mshr_hits::total           11                       # number of ReadReq MSHR hits
system.cpu.dcache.ReadReq_mshr_misses::.cpu.data           71                       # number of ReadReq MSHR misses
system.cpu.dcache.ReadReq_mshr_misses::total           71                       # number of ReadReq MSHR misses
system.cpu.dcache.ReadReq_mshr_miss_latency::.cpu.data      5941000                       # number of ReadReq MSHR miss cycles
system.cpu.dcache.ReadReq_mshr_miss_latency::total      5941000                       # number of ReadReq MSHR miss cycles
system.cpu.dcache.ReadReq_mshr_miss_rate::.cpu.data     0.026355                       # mshr miss rate for ReadReq accesses
system.cpu.dcache.ReadReq_mshr_miss_rate::total     0.026355                       # mshr miss rate for ReadReq accesses
system.cpu.dcache.ReadReq_avg_mshr_miss_latency::.cpu.data 83676.056338                       # average ReadReq mshr miss latency
system.cpu.dcache.ReadReq_avg_mshr_miss_latency::total 83676.056338                       # average ReadReq mshr miss latency
system.cpu.dcache.WriteReq_hits::.cpu.data         1969                       # number of WriteReq hits
system.cpu.dcache.WriteReq_hits::total           1969                       # number of WriteReq hits
system.cpu.dcache.WriteReq_misses::.cpu.data           51                       # number of WriteReq misses
system.cpu.dcache.WriteReq_misses::total           51                       # number of WriteReq misses
system.cpu.dcache.WriteReq_miss_latency::.cpu.data      5001500                       # number of WriteReq miss cycles
system.cpu.dcache.WriteReq_miss_latency::total      5001500                       # number of WriteReq miss cycles
system.cpu.dcache.WriteReq_accesses::.cpu.data         2020                       # number of WriteReq accesses(hits+misses)
system.cpu.dcache.WriteReq_accesses::total         2020                       # number of WriteReq accesses(hits+misses)
system.cpu.dcache.WriteReq_miss_rate::.cpu.data     0.025248                       # miss rate for WriteReq accesses
system.cpu.dcache.WriteReq_miss_rate::total     0.025248                       # miss rate for WriteReq accesses
system.cpu.dcache.WriteReq_avg_miss_latency::.cpu.data 98068.627451                       # average WriteReq miss latency
system.cpu.dcache.WriteReq_avg_miss_latency::total 98068.627451                       # average WriteReq miss latency
system.cpu.dcache.WriteReq_mshr_hits::.cpu.data           20                       # number of WriteReq MSHR hits
system.cpu.dcache.WriteReq_mshr_hits::total           20                       # number of WriteReq MSHR hits
system.cpu.dcache.WriteReq_mshr_misses::.cpu.data           31                       # number of WriteReq MSHR misses
system.cpu.dcache.WriteReq_mshr_misses::total           31                       # number of WriteReq MSHR misses
system.cpu.dcache.WriteReq_mshr_miss_latency::.cpu.data      3118000                       # number of WriteReq MSHR miss cycles
system.cpu.dcache.WriteReq_mshr_miss_latency::total      3118000                       # number of WriteReq MSHR miss cycles
system.cpu.dcache.WriteReq_mshr_miss_rate::.cpu.data     0.015347                       # mshr miss rate for WriteReq accesses
system.cpu.dcache.WriteReq_mshr_miss_rate::total     0.015347                       # mshr miss rate for WriteReq accesses
system.cpu.dcache.WriteReq_avg_mshr_miss_latency::.cpu.data 100580.645161                       # average WriteReq mshr miss latency
system.cpu.dcache.WriteReq_avg_mshr_miss_latency::total 100580.645161                       # average WriteReq mshr miss latency
system.cpu.dcache.SoftPFReq_hits::.cpu.data           60                       # number of SoftPFReq hits
system.cpu.dcache.SoftPFReq_hits::total            60                       # number of SoftPFReq hits
system.cpu.dcache.SoftPFReq_misses::.cpu.data           16                       # number of SoftPFReq misses
system.cpu.dcache.SoftPFReq_misses::total           16                       # number of SoftPFReq misses
system.cpu.dcache.SoftPFReq_accesses::.cpu.data           76                       # number of SoftPFReq accesses(hits+misses)
system.cpu.dcache.SoftPFReq_accesses::total           76                       # number of SoftPFReq accesses(hits+misses)
system.cpu.dcache.SoftPFReq_miss_rate::.cpu.data     0.210526                       # miss rate for SoftPFReq accesses
system.cpu.dcache.SoftPFReq_miss_rate::total     0.210526                       # miss rate for SoftPFReq accesses
system.cpu.dcache.SoftPFReq_mshr_misses::.cpu.data            8                       # number of SoftPFReq MSHR misses
system.cpu.dcache.SoftPFReq_mshr_misses::total            8                       # number of SoftPFReq MSHR misses
system.cpu.dcache.SoftPFReq_mshr_miss_latency::.cpu.data       841500                       # number of SoftPFReq MSHR miss cycles
system.cpu.dcache.SoftPFReq_mshr_miss_latency::total       841500                       # number of SoftPFReq MSHR miss cycles
system.cpu.dcache.SoftPFReq_mshr_miss_rate::.cpu.data     0.105263                       # mshr miss rate for SoftPFReq accesses
system.cpu.dcache.SoftPFReq_mshr_miss_rate::total     0.105263                       # mshr miss rate for SoftPFReq accesses
system.cpu.dcache.SoftPFReq_avg_mshr_miss_latency::.cpu.data 105187.500000                       # average SoftPFReq mshr miss latency
system.cpu.dcache.SoftPFReq_avg_mshr_miss_latency::total 105187.500000                       # average SoftPFReq mshr miss latency
system.cpu.dcache.LoadLockedReq_hits::.cpu.data           20                       # number of LoadLockedReq hits
system.cpu.dcache.LoadLockedReq_hits::total           20                       # number of LoadLockedReq hits
system.cpu.dcache.LoadLockedReq_accesses::.cpu.data           20                       # number of LoadLockedReq accesses(hits+misses)
system.cpu.dcache.LoadLockedReq_accesses::total           20                       # number of LoadLockedReq accesses(hits+misses)
system.cpu.dcache.StoreCondReq_hits::.cpu.data           20                       # number of StoreCondReq hits
system.cpu.dcache.StoreCondReq_hits::total           20                       # number of StoreCondReq hits
system.cpu.dcache.StoreCondReq_accesses::.cpu.data           20                       # number of StoreCondReq accesses(hits+misses)
system.cpu.dcache.StoreCondReq_accesses::total           20                       # number of StoreCondReq accesses(hits+misses)
system.cpu.dcache.power_state.pwrStateResidencyTicks::UNDEFINED     40888500                       # Cumulative time (in ticks) in various power states
system.cpu.dcache.tags.tagsinuse            61.391285                       # Cycle average of tags in use
system.cpu.dcache.tags.total_refs                4791                       # Total number of references to valid blocks.
system.cpu.dcache.tags.sampled_refs               110                       # Sample count of references to valid blocks.
system.cpu.dcache.tags.avg_refs             43.554545                       # Average number of references to valid blocks.
system.cpu.dcache.tags.warmup_cycle            213500                       # Cycle when the warmup percentage was hit.
system.cpu.dcache.tags.occ_blocks::.cpu.data    61.391285                       # Average occupied blocks per requestor
system.cpu.dcache.tags.occ_percent::.cpu.data     0.239810                       # Average percentage of cache occupancy
system.cpu.dcache.tags.occ_percent::total     0.239810                       # Average percentage of cache occupancy
system.cpu.dcache.tags.occ_task_id_blocks::1024          106                       # Occupied blocks per task id
system.cpu.dcache.tags.age_task_id_blocks_1024::0           19                       # Occupied blocks per task id
system.cpu.dcache.tags.age_task_id_blocks_1024::1           87                       # Occupied blocks per task id
system.cpu.dcache.tags.occ_task_id_percent::1024     0.414062                       # Percentage of cache occupancy per task id
system.cpu.dcache.tags.tag_accesses              9770                       # Number of tag accesses
system.cpu.dcache.tags.data_accesses             9770                       # Number of data accesses
system.cpu.dcache.tags.power_state.pwrStateResidencyTicks::UNDEFINED     40888500                       # Cumulative time (in ticks) in various power states
system.cpu.dtb.instHits                             0                       # ITB inst hits
system.cpu.dtb.instMisses                           0                       # ITB inst misses
system.cpu.dtb.readHits                             0                       # DTB read hits
system.cpu.dtb.readMisses                           0                       # DTB read misses
system.cpu.dtb.writeHits                            0                       # DTB write hits
system.cpu.dtb.writeMisses                          0                       # DTB write misses
system.cpu.dtb.inserts                              0                       # Number of times an entry is inserted into the TLB
system.cpu.dtb.flushTlb                             0                       # Number of times complete TLB was flushed
system.cpu.dtb.flushTlbMva                          0                       # Number of times TLB was flushed by MVA
system.cpu.dtb.flushTlbMvaAsid                      0                       # Number of times TLB was flushed by MVA & ASID
system.cpu.dtb.flushTlbAsid                         0                       # Number of times TLB was flushed by ASID
system.cpu.dtb.flushedEntries                       0                       # Number of entries that have been flushed from TLB
system.cpu.dtb.alignFaults                          0                       # Number of TLB faults due to alignment restrictions
system.cpu.dtb.prefetchFaults                       0                       # Number of TLB faults due to prefetch
system.cpu.dtb.domainFaults                         0                       # Number of TLB faults due to domain restrictions
system.cpu.dtb.permsFaults                          0                       # Number of TLB faults due to permissions restrictions
system.cpu.dtb.readAccesses                         0                       # DTB read accesses
system.cpu.dtb.writeAccesses                        0                       # DTB write accesses
system.cpu.dtb.instAccesses                         0                       # ITB inst accesses
system.cpu.dtb.hits                                 0                       # Total TLB (inst and data) hits
system.cpu.dtb.misses                               0                       # Total TLB (inst and data) misses
system.cpu.dtb.accesses                             0                       # Total TLB (inst and data) accesses
system.cpu.dtb.stage2_mmu.stage2_tlb.instHits            0                       # ITB inst hits
system.cpu.dtb.stage2_mmu.stage2_tlb.instMisses            0                       # ITB inst misses
system.cpu.dtb.stage2_mmu.stage2_tlb.readHits            0                       # DTB read hits
system.cpu.dtb.stage2_mmu.stage2_tlb.readMisses            0                       # DTB read misses
system.cpu.dtb.stage2_mmu.stage2_tlb.writeHits            0                       # DTB write hits
system.cpu.dtb.stage2_mmu.stage2_tlb.writeMisses            0                       # DTB write misses
system.cpu.dtb.stage2_mmu.stage2_tlb.inserts            0                       # Number of times an entry is inserted into the TLB
system.cpu.dtb.stage2_mmu.stage2_tlb.flushTlb            0                       # Number of times complete TLB was flushed
system.cpu.dtb.stage2_mmu.stage2_tlb.flushTlbMva            0                       # Number of times TLB was flushed by MVA
system.cpu.dtb.stage2_mmu.stage2_tlb.flushTlbMvaAsid            0                       # Number of times TLB was flushed by MVA & ASID
system.cpu.dtb.stage2_mmu.stage2_tlb.flushTlbAsid            0                       # Number of times TLB was flushed by ASID
system.cpu.dtb.stage2_mmu.stage2_tlb.flushedEntries            0                       # Number of entries that have been flushed from TLB
system.cpu.dtb.stage2_mmu.stage2_tlb.alignFaults            0                       # Number of TLB faults due to alignment restrictions
system.cpu.dtb.stage2_mmu.stage2_tlb.prefetchFaults            0                       # Number of TLB faults due to prefetch
system.cpu.dtb.stage2_mmu.stage2_tlb.domainFaults            0                       # Number of TLB faults due to domain restrictions
system.cpu.dtb.stage2_mmu.stage2_tlb.permsFaults            0                       # Number of TLB faults due to permissions restrictions
system.cpu.dtb.stage2_mmu.stage2_tlb.readAccesses            0                       # DTB read accesses
system.cpu.dtb.stage2_mmu.stage2_tlb.writeAccesses            0                       # DTB write accesses
system.cpu.dtb.stage2_mmu.stage2_tlb.instAccesses            0                       # ITB inst accesses
system.cpu.dtb.stage2_mmu.stage2_tlb.hits            0                       # Total TLB (inst and data) hits
system.cpu.dtb.stage2_mmu.stage2_tlb.misses            0                       # Total TLB (inst and data) misses
system.cpu.dtb.stage2_mmu.stage2_tlb.accesses            0                       # Total TLB (inst and data) accesses
system.cpu.dtb.stage2_mmu.stage2_tlb.walker.walks            0                       # Table walker walks requested
system.cpu.dtb.stage2_mmu.stage2_tlb.walker.requestOrigin_Requested::Data            0                       # Table walker requests started/completed, data/inst
system.cpu.dtb.stage2_mmu.stage2_tlb.walker.requestOrigin_Requested::Inst            0                       # Table walker requests started/completed, data/inst
system.cpu.dtb.stage2_mmu.stage2_tlb.walker.requestOrigin_Requested::total            0                       # Table walker requests started/completed, data/inst
system.cpu.dtb.stage2_mmu.stage2_tlb.walker.requestOrigin_Completed::Data            0                       # Table walker requests started/completed, data/inst
system.cpu.dtb.stage2_mmu.stage2_tlb.walker.requestOrigin_Completed::Inst            0                       # Table walker requests started/completed, data/inst
system.cpu.dtb.stage2_mmu.stage2_tlb.walker.requestOrigin_Completed::total            0                       # Table walker requests started/completed, data/inst
system.cpu.dtb.stage2_mmu.stage2_tlb.walker.requestOrigin::total            0                       # Table walker requests started/completed, data/inst
system.cpu.dtb.stage2_mmu.stage2_tlb.walker.power_state.pwrStateResidencyTicks::UNDEFINED     40888500                       # Cumulative time (in ticks) in various power states
system.cpu.dtb.walker.walks                         0                       # Table walker walks requested
system.cpu.dtb.walker.requestOrigin_Requested::Data            0                       # Table walker requests started/completed, data/inst
system.cpu.dtb.walker.requestOrigin_Requested::Inst            0                       # Table walker requests started/completed, data/inst
system.cpu.dtb.walker.requestOrigin_Requested::total            0                       # Table walker requests started/completed, data/inst
system.cpu.dtb.walker.requestOrigin_Completed::Data            0                       # Table walker requests started/completed, data/inst
system.cpu.dtb.walker.requestOrigin_Completed::Inst            0                       # Table walker requests started/completed, data/inst
system.cpu.dtb.walker.requestOrigin_Completed::total            0                       # Table walker requests started/completed, data/inst
system.cpu.dtb.walker.requestOrigin::total            0                       # Table walker requests started/completed, data/inst
system.cpu.dtb.walker.power_state.pwrStateResidencyTicks::UNDEFINED     40888500                       # Cumulative time (in ticks) in various power states
system.cpu.fetch2.intInstructions               14877                       # Number of integer instructions successfully decoded
system.cpu.fetch2.fpInstructions                    0                       # Number of floating point instructions successfully decoded
system.cpu.fetch2.vecInstructions                   0                       # Number of SIMD instructions successfully decoded
system.cpu.fetch2.loadInstructions               3308                       # Number of memory load instructions successfully decoded
system.cpu.fetch2.storeInstructions              1655                       # Number of memory store instructions successfully decoded
system.cpu.fetch2.amoInstructions                   0                       # Number of memory atomic instructions successfully decoded
system.cpu.icache.demand_hits::.cpu.inst         4747                       # number of demand (read+write) hits
system.cpu.icache.demand_hits::total             4747                       # number of demand (read+write) hits
system.cpu.icache.overall_hits::.cpu.inst         4747                       # number of overall hits
system.cpu.icache.overall_hits::total            4747                       # number of overall hits
system.cpu.icache.demand_misses::.cpu.inst          303                       # number of demand (read+write) misses
system.cpu.icache.demand_misses::total            303                       # number of demand (read+write) misses
system.cpu.icache.overall_misses::.cpu.inst          303                       # number of overall misses
system.cpu.icache.overall_misses::total           303                       # number of overall misses
system.cpu.icache.demand_miss_latency::.cpu.inst     25202500                       # number of demand (read+write) miss cycles
system.cpu.icache.demand_miss_latency::total     25202500                       # number of demand (read+write) miss cycles
system.cpu.icache.overall_miss_latency::.cpu.inst     25202500                       # number of overall miss cycles
system.cpu.icache.overall_miss_latency::total     25202500                       # number of overall miss cycles
system.cpu.icache.demand_accesses::.cpu.inst         5050                       # number of demand (read+write) accesses
system.cpu.icache.demand_accesses::total         5050                       # number of demand (read+write) accesses
system.cpu.icache.overall_accesses::.cpu.inst         5050                       # number of overall (read+write) accesses
system.cpu.icache.overall_accesses::total         5050                       # number of overall (read+write) accesses
system.cpu.icache.demand_miss_rate::.cpu.inst     0.060000                       # miss rate for demand accesses
system.cpu.icache.demand_miss_rate::total     0.060000                       # miss rate for demand accesses
system.cpu.icache.overall_miss_rate::.cpu.inst     0.060000                       # miss rate for overall accesses
system.cpu.icache.overall_miss_rate::total     0.060000                       # miss rate for overall accesses
system.cpu.icache.demand_avg_miss_latency::.cpu.inst 83176.567657                       # average overall miss latency
system.cpu.icache.demand_avg_miss_latency::total 83176.567657                       # average overall miss latency
system.cpu.icache.overall_avg_miss_latency::.cpu.inst 83176.567657                       # average overall miss latency
system.cpu.icache.overall_avg_miss_latency::total 83176.567657                       # average overall miss latency
system.cpu.icache.blocked_cycles::no_mshrs            0                       # number of cycles access was blocked
system.cpu.icache.blocked_cycles::no_targets            0                       # number of cycles access was blocked
system.cpu.icache.blocked::no_mshrs                 0                       # number of cycles access was blocked
system.cpu.icache.blocked::no_targets               0                       # number of cycles access was blocked
system.cpu.icache.avg_blocked_cycles::no_mshrs          nan                       # average number of cycles each access was blocked
system.cpu.icache.avg_blocked_cycles::no_targets          nan                       # average number of cycles each access was blocked
system.cpu.icache.writebacks::.writebacks          182                       # number of writebacks
system.cpu.icache.writebacks::total               182                       # number of writebacks
system.cpu.icache.demand_mshr_misses::.cpu.inst          303                       # number of demand (read+write) MSHR misses
system.cpu.icache.demand_mshr_misses::total          303                       # number of demand (read+write) MSHR misses
system.cpu.icache.overall_mshr_misses::.cpu.inst          303                       # number of overall MSHR misses
system.cpu.icache.overall_mshr_misses::total          303                       # number of overall MSHR misses
system.cpu.icache.demand_mshr_miss_latency::.cpu.inst     24899500                       # number of demand (read+write) MSHR miss cycles
system.cpu.icache.demand_mshr_miss_latency::total     24899500                       # number of demand (read+write) MSHR miss cycles
system.cpu.icache.overall_mshr_miss_latency::.cpu.inst     24899500                       # number of overall MSHR miss cycles
system.cpu.icache.overall_mshr_miss_latency::total     24899500                       # number of overall MSHR miss cycles
system.cpu.icache.demand_mshr_miss_rate::.cpu.inst     0.060000                       # mshr miss rate for demand accesses
system.cpu.icache.demand_mshr_miss_rate::total     0.060000                       # mshr miss rate for demand accesses
system.cpu.icache.overall_mshr_miss_rate::.cpu.inst     0.060000                       # mshr miss rate for overall accesses
system.cpu.icache.overall_mshr_miss_rate::total     0.060000                       # mshr miss rate for overall accesses
system.cpu.icache.demand_avg_mshr_miss_latency::.cpu.inst 82176.567657                       # average overall mshr miss latency
system.cpu.icache.demand_avg_mshr_miss_latency::total 82176.567657                       # average overall mshr miss latency
system.cpu.icache.overall_avg_mshr_miss_latency::.cpu.inst 82176.567657                       # average overall mshr miss latency
system.cpu.icache.overall_avg_mshr_miss_latency::total 82176.567657                       # average overall mshr miss latency
system.cpu.icache.replacements                    182                       # number of replacements
system.cpu.icache.ReadReq_hits::.cpu.inst         4747                       # number of ReadReq hits
system.cpu.icache.ReadReq_hits::total            4747                       # number of ReadReq hits
system.cpu.icache.ReadReq_misses::.cpu.inst          303                       # number of ReadReq misses
system.cpu.icache.ReadReq_misses::total           303                       # number of ReadReq misses
system.cpu.icache.ReadReq_miss_latency::.cpu.inst     25202500                       # number of ReadReq miss cycles
system.cpu.icache.ReadReq_miss_latency::total     25202500                       # number of ReadReq miss cycles
system.cpu.icache.ReadReq_accesses::.cpu.inst         5050                       # number of ReadReq accesses(hits+misses)
system.cpu.icache.ReadReq_accesses::total         5050                       # number of ReadReq accesses(hits+misses)
system.cpu.icache.ReadReq_miss_rate::.cpu.inst     0.060000                       # miss rate for ReadReq accesses
system.cpu.icache.ReadReq_miss_rate::total     0.060000                       # miss rate for ReadReq accesses
system.cpu.icache.ReadReq_avg_miss_latency::.cpu.inst 83176.567657                       # average ReadReq miss latency
system.cpu.icache.ReadReq_avg_miss_latency::total 83176.567657                       # average ReadReq miss latency
system.cpu.icache.ReadReq_mshr_misses::.cpu.inst          303                       # number of ReadReq MSHR misses
system.cpu.icache.ReadReq_mshr_misses::total          303                       # number of ReadReq MSHR misses
system.cpu.icache.ReadReq_mshr_miss_latency::.cpu.inst     24899500                       # number of ReadReq MSHR miss cycles
system.cpu.icache.ReadReq_mshr_miss_latency::total     24899500                       # number of ReadReq MSHR miss cycles
system.cpu.icache.ReadReq_mshr_miss_rate::.cpu.inst     0.060000                       # mshr miss rate for ReadReq accesses
system.cpu.icache.ReadReq_mshr_miss_rate::total     0.060000                       # mshr miss rate for ReadReq accesses
system.cpu.icache.ReadReq_avg_mshr_miss_latency::.cpu.inst 82176.567657                       # average ReadReq mshr miss latency
system.cpu.icache.ReadReq_avg_mshr_miss_latency::total 82176.567657                       # average ReadReq mshr miss latency
system.cpu.icache.power_state.pwrStateResidencyTicks::UNDEFINED     40888500                       # Cumulative time (in ticks) in various power states
system.cpu.icache.tags.tagsinuse            85.016619                       # Cycle average of tags in use
system.cpu.icache.tags.total_refs                5050                       # Total number of references to valid blocks.
system.cpu.icache.tags.sampled_refs               303                       # Sample count of references to valid blocks.
system.cpu.icache.tags.avg_refs             16.666667                       # Average number of references to valid blocks.
system.cpu.icache.tags.warmup_cycle            102500                       # Cycle when the warmup percentage was hit.
system.cpu.icache.tags.occ_blocks::.cpu.inst    85.016619                       # Average occupied blocks per requestor
system.cpu.icache.tags.occ_percent::.cpu.inst     0.664192                       # Average percentage of cache occupancy
system.cpu.icache.tags.occ_percent::total     0.664192                       # Average percentage of cache occupancy
system.cpu.icache.tags.occ_task_id_blocks::1024          121                       # Occupied blocks per task id
system.cpu.icache.tags.age_task_id_blocks_1024::0           73                       # Occupied blocks per task id
system.cpu.icache.tags.age_task_id_blocks_1024::1           48                       # Occupied blocks per task id
system.cpu.icache.tags.occ_task_id_percent::1024     0.945312                       # Percentage of cache occupancy per task id
system.cpu.icache.tags.tag_accesses             10403                       # Number of tag accesses
system.cpu.icache.tags.data_accesses            10403                       # Number of data accesses
system.cpu.icache.tags.power_state.pwrStateResidencyTicks::UNDEFINED     40888500                       # Cumulative time (in ticks) in various power states
system.cpu.itb.instHits                             0                       # ITB inst hits
system.cpu.itb.instMisses                           0                       # ITB inst misses
system.cpu.itb.readHits                             0                       # DTB read hits
system.cpu.itb.readMisses                           0                       # DTB read misses
system.cpu.itb.writeHits                            0                       # DTB write hits
system.cpu.itb.writeMisses                          0                       # DTB write misses
system.cpu.itb.inserts                              0                       # Number of times an entry is inserted into the TLB
system.cpu.itb.flushTlb                             0                       # Number of times complete TLB was flushed
system.cpu.itb.flushTlbMva                          0                       # Number of times TLB was flushed by MVA
system.cpu.itb.flushTlbMvaAsid                      0                       # Number of times TLB was flushed by MVA & ASID
system.cpu.itb.flushTlbAsid                         0                       # Number of times TLB was flushed by ASID
system.cpu.itb.flushedEntries                       0                       # Number of entries that have been flushed from TLB
system.cpu.itb.alignFaults                          0                       # Number of TLB faults due to alignment restrictions
system.cpu.itb.prefetchFaults                       0                       # Number of TLB faults due to prefetch
system.cpu.itb.domainFaults                         0                       # Number of TLB faults due to domain restrictions
system.cpu.itb.permsFaults                          0                       # Number of TLB faults due to permissions restrictions
system.cpu.itb.readAccesses                         0                       # DTB read accesses
system.cpu.itb.writeAccesses                        0                       # DTB write accesses
system.cpu.itb.instAccesses                         0                       # ITB inst accesses
system.cpu.itb.hits                                 0                       # Total TLB (inst and data) hits
system.cpu.itb.misses                               0                       # Total TLB (inst and data) misses
system.cpu.itb.accesses                             0                       # Total TLB (inst and data) accesses
system.cpu.itb.stage2_mmu.stage2_tlb.instHits            0                       # ITB inst hits
system.cpu.itb.stage2_mmu.stage2_tlb.instMisses            0                       # ITB inst misses
system.cpu.itb.stage2_mmu.stage2_tlb.readHits            0                       # DTB read hits
system.cpu.itb.stage2_mmu.stage2_tlb.readMisses            0                       # DTB read misses
system.cpu.itb.stage2_mmu.stage2_tlb.writeHits            0                       # DTB write hits
system.cpu.itb.stage2_mmu.stage2_tlb.writeMisses            0                       # DTB write misses
system.cpu.itb.stage2_mmu.stage2_tlb.inserts            0                       # Number of times an entry is inserted into the TLB
system.cpu.itb.stage2_mmu.stage2_tlb.flushTlb            0                       # Number of times complete TLB was flushed
system.cpu.itb.stage2_mmu.stage2_tlb.flushTlbMva            0                       # Number of times TLB was flushed by MVA
system.cpu.itb.stage2_mmu.stage2_tlb.flushTlbMvaAsid            0                       # Number of times TLB was flushed by MVA & ASID
system.cpu.itb.stage2_mmu.stage2_tlb.flushTlbAsid            0                       # Number of times TLB was flushed by ASID
system.cpu.itb.stage2_mmu.stage2_tlb.flushedEntries            0                       # Number of entries that have been flushed from TLB
system.cpu.itb.stage2_mmu.stage2_tlb.alignFaults            0                       # Number of TLB faults due to alignment restrictions
system.cpu.itb.stage2_mmu.stage2_tlb.prefetchFaults            0                       # Number of TLB faults due to prefetch
system.cpu.itb.stage2_mmu.stage2_tlb.domainFaults            0                       # Number of TLB faults due to domain restrictions
system.cpu.itb.stage2_mmu.stage2_tlb.permsFaults            0                       # Number of TLB faults due to permissions restrictions
system.cpu.itb.stage2_mmu.stage2_tlb.readAccesses            0                       # DTB read accesses
system.cpu.itb.stage2_mmu.stage2_tlb.writeAccesses            0                       # DTB write accesses
system.cpu.itb.stage2_mmu.stage2_tlb.instAccesses            0                       # ITB inst accesses
system.cpu.itb.stage2_mmu.stage2_tlb.hits            0                       # Total TLB (inst and data) hits
system.cpu.itb.stage2_mmu.stage2_tlb.misses            0                       # Total TLB (inst and data) misses
system.cpu.itb.stage2_mmu.stage2_tlb.accesses            0                       # Total TLB (inst and data) accesses
system.cpu.itb.stage2_mmu.stage2_tlb.walker.walks            0                       # Table walker walks requested
system.cpu.itb.stage2_mmu.stage2_tlb.walker.requestOrigin_Requested::Data            0                       # Table walker requests started/completed, data/inst
system.cpu.itb.stage2_mmu.stage2_tlb.walker.requestOrigin_Requested::Inst            0                       # Table walker requests started/completed, data/inst
system.cpu.itb.stage2_mmu.stage2_tlb.walker.requestOrigin_Requested::total            0                       # Table walker requests started/completed, data/inst
system.cpu.itb.stage2_mmu.stage2_tlb.walker.requestOrigin_Completed::Data            0                       # Table walker requests started/completed, data/inst
system.cpu.itb.stage2_mmu.stage2_tlb.walker.requestOrigin_Completed::Inst            0                       # Table walker requests started/completed, data/inst
system.cpu.itb.stage2_mmu.stage2_tlb.walker.requestOrigin_Completed::total            0                       # Table walker requests started/completed, data/inst
system.cpu.itb.stage2_mmu.stage2_tlb.walker.requestOrigin::total            0                       # Table walker requests started/completed, data/inst
system.cpu.itb.stage2_mmu.stage2_tlb.walker.power_state.pwrStateResidencyTicks::UNDEFINED     40888500                       # Cumulative time (in ticks) in various power states
system.cpu.itb.walker.walks                         0                       # Table walker walks requested
system.cpu.itb.walker.requestOrigin_Requested::Data            0                       # Table walker requests started/completed, data/inst
system.cpu.itb.walker.requestOrigin_Requested::Inst            0                       # Table walker requests started/completed, data/inst
system.cpu.itb.walker.requestOrigin_Requested::total            0                       # Table walker requests started/completed, data/inst
system.cpu.itb.walker.requestOrigin_Completed::Data            0                       # Table walker requests started/completed, data/inst
system.cpu.itb.walker.requestOrigin_Completed::Inst            0                       # Table walker requests started/completed, data/inst
system.cpu.itb.walker.requestOrigin_Completed::total            0                       # Table walker requests started/completed, data/inst
system.cpu.itb.walker.requestOrigin::total            0                       # Table walker requests started/completed, data/inst
system.cpu.itb.walker.power_state.pwrStateResidencyTicks::UNDEFINED     40888500                       # Cumulative time (in ticks) in various power states
system.cpu.power_state.pwrStateResidencyTicks::ON     40888500                       # Cumulative time (in ticks) in various power states
system.cpu.thread_0.numInsts                    14127                       # Number of Instructions committed
system.cpu.thread_0.numOps                      16082                       # Number of Ops committed
system.cpu.thread_0.numMemRefs                      0                       # Number of Memory References
system.cpu_clk_domain.clock                       500                       # Clock period in ticks
system.cpu_voltage_domain.voltage                   1                       # Voltage in Volts
system.l2.demand_hits::.cpu.inst                   53                       # number of demand (read+write) hits
system.l2.demand_hits::.cpu.data                   15                       # number of demand (read+write) hits
system.l2.demand_hits::total                       68                       # number of demand (read+write) hits
system.l2.overall_hits::.cpu.inst                  53                       # number of overall hits
system.l2.overall_hits::.cpu.data                  15                       # number of overall hits
system.l2.overall_hits::total                      68                       # number of overall hits
system.l2.demand_misses::.cpu.inst                250                       # number of demand (read+write) misses
system.l2.demand_misses::.cpu.data                 95                       # number of demand (read+write) misses
system.l2.demand_misses::total                    345                       # number of demand (read+write) misses
system.l2.overall_misses::.cpu.inst               250                       # number of overall misses
system.l2.overall_misses::.cpu.data                95                       # number of overall misses
system.l2.overall_misses::total                   345                       # number of overall misses
system.l2.demand_miss_latency::.cpu.inst     23677500                       # number of demand (read+write) miss cycles
system.l2.demand_miss_latency::.cpu.data      9552000                       # number of demand (read+write) miss cycles
system.l2.demand_miss_latency::total         33229500                       # number of demand (read+write) miss cycles
system.l2.overall_miss_latency::.cpu.inst     23677500                       # number of overall miss cycles
system.l2.overall_miss_latency::.cpu.data      9552000                       # number of overall miss cycles
system.l2.overall_miss_latency::total        33229500                       # number of overall miss cycles
system.l2.demand_accesses::.cpu.inst              303                       # number of demand (read+write) accesses
system.l2.demand_accesses::.cpu.data              110                       # number of demand (read+write) accesses
system.l2.demand_accesses::total                  413                       # number of demand (read+write) accesses
system.l2.overall_accesses::.cpu.inst             303                       # number of overall (read+write) accesses
system.l2.overall_accesses::.cpu.data             110                       # number of overall (read+write) accesses
system.l2.overall_accesses::total                 413                       # number of overall (read+write) accesses
system.l2.demand_miss_rate::.cpu.inst        0.825083                       # miss rate for demand accesses
system.l2.demand_miss_rate::.cpu.data        0.863636                       # miss rate for demand accesses
system.l2.demand_miss_rate::total            0.835351                       # miss rate for demand accesses
system.l2.overall_miss_rate::.cpu.inst       0.825083                       # miss rate for overall accesses
system.l2.overall_miss_rate::.cpu.data       0.863636                       # miss rate for overall accesses
system.l2.overall_miss_rate::total           0.835351                       # miss rate for overall accesses
system.l2.demand_avg_miss_latency::.cpu.inst        94710                       # average overall miss latency
system.l2.demand_avg_miss_latency::.cpu.data 100547.368421                       # average overall miss latency
system.l2.demand_avg_miss_latency::total 96317.391304                       # average overall miss latency
system.l2.overall_avg_miss_latency::.cpu.inst        94710                       # average overall miss latency
system.l2.overall_avg_miss_latency::.cpu.data 100547.368421                       # average overall miss latency
system.l2.overall_avg_miss_latency::total 96317.391304                       # average overall miss latency
system.l2.blocked_cycles::no_mshrs                  0                       # number of cycles access was blocked
system.l2.blocked_cycles::no_targets                0                       # number of cycles access was blocked
system.l2.blocked::no_mshrs                         0                       # number of cycles access was blocked
system.l2.blocked::no_targets                       0                       # number of cycles access was blocked
system.l2.avg_blocked_cycles::no_mshrs            nan                       # average number of cycles each access was blocked
system.l2.avg_blocked_cycles::no_targets          nan                       # average number of cycles each access was blocked
system.l2.demand_mshr_hits::.cpu.data               7                       # number of demand (read+write) MSHR hits
system.l2.demand_mshr_hits::total                   7                       # number of demand (read+write) MSHR hits
system.l2.overall_mshr_hits::.cpu.data              7                       # number of overall MSHR hits
system.l2.overall_mshr_hits::total                  7                       # number of overall MSHR hits
system.l2.demand_mshr_misses::.cpu.inst           250                       # number of demand (read+write) MSHR misses
system.l2.demand_mshr_misses::.cpu.data            88                       # number of demand (read+write) MSHR misses
system.l2.demand_mshr_misses::total               338                       # number of demand (read+write) MSHR misses
system.l2.overall_mshr_misses::.cpu.inst          250                       # number of overall MSHR misses
system.l2.overall_mshr_misses::.cpu.data           88                       # number of overall MSHR misses
system.l2.overall_mshr_misses::total              338                       # number of overall MSHR misses
system.l2.demand_mshr_miss_latency::.cpu.inst     21177500                       # number of demand (read+write) MSHR miss cycles
system.l2.demand_mshr_miss_latency::.cpu.data      8081500                       # number of demand (read+write) MSHR miss cycles
system.l2.demand_mshr_miss_latency::total     29259000                       # number of demand (read+write) MSHR miss cycles
system.l2.overall_mshr_miss_latency::.cpu.inst     21177500                       # number of overall MSHR miss cycles
system.l2.overall_mshr_miss_latency::.cpu.data      8081500                       # number of overall MSHR miss cycles
system.l2.overall_mshr_miss_latency::total     29259000                       # number of overall MSHR miss cycles
system.l2.demand_mshr_miss_rate::.cpu.inst     0.825083                       # mshr miss rate for demand accesses
system.l2.demand_mshr_miss_rate::.cpu.data     0.800000                       # mshr miss rate for demand accesses
system.l2.demand_mshr_miss_rate::total       0.818402                       # mshr miss rate for demand accesses
system.l2.overall_mshr_miss_rate::.cpu.inst     0.825083                       # mshr miss rate for overall accesses
system.l2.overall_mshr_miss_rate::.cpu.data     0.800000                       # mshr miss rate for overall accesses
system.l2.overall_mshr_miss_rate::total      0.818402                       # mshr miss rate for overall accesses
system.l2.demand_avg_mshr_miss_latency::.cpu.inst        84710                       # average overall mshr miss latency
system.l2.demand_avg_mshr_miss_latency::.cpu.data 91835.227273                       # average overall mshr miss latency
system.l2.demand_avg_mshr_miss_latency::total 86565.088757                       # average overall mshr miss latency
system.l2.overall_avg_mshr_miss_latency::.cpu.inst        84710                       # average overall mshr miss latency
system.l2.overall_avg_mshr_miss_latency::.cpu.data 91835.227273                       # average overall mshr miss latency
system.l2.overall_avg_mshr_miss_latency::total 86565.088757                       # average overall mshr miss latency
system.l2.replacements                              0                       # number of replacements
system.l2.WritebackDirty_hits::.writebacks            2                       # number of WritebackDirty hits
system.l2.WritebackDirty_hits::total                2                       # number of WritebackDirty hits
system.l2.WritebackDirty_accesses::.writebacks            2                       # number of WritebackDirty accesses(hits+misses)
system.l2.WritebackDirty_accesses::total            2                       # number of WritebackDirty accesses(hits+misses)
system.l2.WritebackClean_hits::.writebacks          163                       # number of WritebackClean hits
system.l2.WritebackClean_hits::total              163                       # number of WritebackClean hits
system.l2.WritebackClean_accesses::.writebacks          163                       # number of WritebackClean accesses(hits+misses)
system.l2.WritebackClean_accesses::total          163                       # number of WritebackClean accesses(hits+misses)
system.l2.ReadExReq_misses::.cpu.data              31                       # number of ReadExReq misses
system.l2.ReadExReq_misses::total                  31                       # number of ReadExReq misses
system.l2.ReadExReq_miss_latency::.cpu.data      3071500                       # number of ReadExReq miss cycles
system.l2.ReadExReq_miss_latency::total       3071500                       # number of ReadExReq miss cycles
system.l2.ReadExReq_accesses::.cpu.data            31                       # number of ReadExReq accesses(hits+misses)
system.l2.ReadExReq_accesses::total                31                       # number of ReadExReq accesses(hits+misses)
system.l2.ReadExReq_miss_rate::.cpu.data            1                       # miss rate for ReadExReq accesses
system.l2.ReadExReq_miss_rate::total                1                       # miss rate for ReadExReq accesses
system.l2.ReadExReq_avg_miss_latency::.cpu.data 99080.645161                       # average ReadExReq miss latency
system.l2.ReadExReq_avg_miss_latency::total 99080.645161                       # average ReadExReq miss latency
system.l2.ReadExReq_mshr_misses::.cpu.data           31                       # number of ReadExReq MSHR misses
system.l2.ReadExReq_mshr_misses::total             31                       # number of ReadExReq MSHR misses
system.l2.ReadExReq_mshr_miss_latency::.cpu.data      2761500                       # number of ReadExReq MSHR miss cycles
system.l2.ReadExReq_mshr_miss_latency::total      2761500                       # number of ReadExReq MSHR miss cycles
system.l2.ReadExReq_mshr_miss_rate::.cpu.data            1                       # mshr miss rate for ReadExReq accesses
system.l2.ReadExReq_mshr_miss_rate::total            1                       # mshr miss rate for ReadExReq accesses
system.l2.ReadExReq_avg_mshr_miss_latency::.cpu.data 89080.645161                       # average ReadExReq mshr miss latency
system.l2.ReadExReq_avg_mshr_miss_latency::total 89080.645161                       # average ReadExReq mshr miss latency
system.l2.ReadCleanReq_hits::.cpu.inst             53                       # number of ReadCleanReq hits
system.l2.ReadCleanReq_hits::total                 53                       # number of ReadCleanReq hits
system.l2.ReadCleanReq_misses::.cpu.inst          250                       # number of ReadCleanReq misses
system.l2.ReadCleanReq_misses::total              250                       # number of ReadCleanReq misses
system.l2.ReadCleanReq_miss_latency::.cpu.inst     23677500                       # number of ReadCleanReq miss cycles
system.l2.ReadCleanReq_miss_latency::total     23677500                       # number of ReadCleanReq miss cycles
system.l2.ReadCleanReq_accesses::.cpu.inst          303                       # number of ReadCleanReq accesses(hits+misses)
system.l2.ReadCleanReq_accesses::total            303                       # number of ReadCleanReq accesses(hits+misses)
system.l2.ReadCleanReq_miss_rate::.cpu.inst     0.825083                       # miss rate for ReadCleanReq accesses
system.l2.ReadCleanReq_miss_rate::total      0.825083                       # miss rate for ReadCleanReq accesses
system.l2.ReadCleanReq_avg_miss_latency::.cpu.inst        94710                       # average ReadCleanReq miss latency
system.l2.ReadCleanReq_avg_miss_latency::total        94710                       # average ReadCleanReq miss latency
system.l2.ReadCleanReq_mshr_misses::.cpu.inst          250                       # number of ReadCleanReq MSHR misses
system.l2.ReadCleanReq_mshr_misses::total          250                       # number of ReadCleanReq MSHR misses
system.l2.ReadCleanReq_mshr_miss_latency::.cpu.inst     21177500                       # number of ReadCleanReq MSHR miss cycles
system.l2.ReadCleanReq_mshr_miss_latency::total     21177500                       # number of ReadCleanReq MSHR miss cycles
system.l2.ReadCleanReq_mshr_miss_rate::.cpu.inst     0.825083                       # mshr miss rate for ReadCleanReq accesses
system.l2.ReadCleanReq_mshr_miss_rate::total     0.825083                       # mshr miss rate for ReadCleanReq accesses
system.l2.ReadCleanReq_avg_mshr_miss_latency::.cpu.inst        84710                       # average ReadCleanReq mshr miss latency
system.l2.ReadCleanReq_avg_mshr_miss_latency::total        84710                       # average ReadCleanReq mshr miss latency
system.l2.ReadSharedReq_hits::.cpu.data            15                       # number of ReadSharedReq hits
system.l2.ReadSharedReq_hits::total                15                       # number of ReadSharedReq hits
system.l2.ReadSharedReq_misses::.cpu.data           64                       # number of ReadSharedReq misses
system.l2.ReadSharedReq_misses::total              64                       # number of ReadSharedReq misses
system.l2.ReadSharedReq_miss_latency::.cpu.data      6480500                       # number of ReadSharedReq miss cycles
system.l2.ReadSharedReq_miss_latency::total      6480500                       # number of ReadSharedReq miss cycles
system.l2.ReadSharedReq_accesses::.cpu.data           79                       # number of ReadSharedReq accesses(hits+misses)
system.l2.ReadSharedReq_accesses::total            79                       # number of ReadSharedReq accesses(hits+misses)
system.l2.ReadSharedReq_miss_rate::.cpu.data     0.810127                       # miss rate for ReadSharedReq accesses
system.l2.ReadSharedReq_miss_rate::total     0.810127                       # miss rate for ReadSharedReq accesses
system.l2.ReadSharedReq_avg_miss_latency::.cpu.data 101257.812500                       # average ReadSharedReq miss latency
system.l2.ReadSharedReq_avg_miss_latency::total 101257.812500                       # average ReadSharedReq miss latency
system.l2.ReadSharedReq_mshr_hits::.cpu.data            7                       # number of ReadSharedReq MSHR hits
system.l2.ReadSharedReq_mshr_hits::total            7                       # number of ReadSharedReq MSHR hits
system.l2.ReadSharedReq_mshr_misses::.cpu.data           57                       # number of ReadSharedReq MSHR misses
system.l2.ReadSharedReq_mshr_misses::total           57                       # number of ReadSharedReq MSHR misses
system.l2.ReadSharedReq_mshr_miss_latency::.cpu.data      5320000                       # number of ReadSharedReq MSHR miss cycles
system.l2.ReadSharedReq_mshr_miss_latency::total      5320000                       # number of ReadSharedReq MSHR miss cycles
system.l2.ReadSharedReq_mshr_miss_rate::.cpu.data     0.721519                       # mshr miss rate for ReadSharedReq accesses
system.l2.ReadSharedReq_mshr_miss_rate::total     0.721519                       # mshr miss rate for ReadSharedReq accesses
system.l2.ReadSharedReq_avg_mshr_miss_latency::.cpu.data 93333.333333                       # average ReadSharedReq mshr miss latency
system.l2.ReadSharedReq_avg_mshr_miss_latency::total 93333.333333                       # average ReadSharedReq mshr miss latency
system.l2.power_state.pwrStateResidencyTicks::UNDEFINED     40888500                       # Cumulative time (in ticks) in various power states
system.l2.tags.tagsinuse                   177.261043                       # Cycle average of tags in use
system.l2.tags.total_refs                         572                       # Total number of references to valid blocks.
system.l2.tags.sampled_refs                       338                       # Sample count of references to valid blocks.
system.l2.tags.avg_refs                      1.692308                       # Average number of references to valid blocks.
system.l2.tags.warmup_cycle                     92000                       # Cycle when the warmup percentage was hit.
system.l2.tags.occ_blocks::.cpu.inst       126.643167                       # Average occupied blocks per requestor
system.l2.tags.occ_blocks::.cpu.data        50.617876                       # Average occupied blocks per requestor
system.l2.tags.occ_percent::.cpu.inst        0.015459                       # Average percentage of cache occupancy
system.l2.tags.occ_percent::.cpu.data        0.006179                       # Average percentage of cache occupancy
system.l2.tags.occ_percent::total            0.021638                       # Average percentage of cache occupancy
system.l2.tags.occ_task_id_blocks::1024           338                       # Occupied blocks per task id
system.l2.tags.age_task_id_blocks_1024::0           86                       # Occupied blocks per task id
system.l2.tags.age_task_id_blocks_1024::1          252                       # Occupied blocks per task id
system.l2.tags.occ_task_id_percent::1024     0.041260                       # Percentage of cache occupancy per task id
system.l2.tags.tag_accesses                      4970                       # Number of tag accesses
system.l2.tags.data_accesses                     4970                       # Number of data accesses
system.l2.tags.power_state.pwrStateResidencyTicks::UNDEFINED     40888500                       # Cumulative time (in ticks) in various power states
system.mem_ctrls.avgPriority_.cpu.inst::samples      1000.00                       # Average QoS priority value for accepted requests
system.mem_ctrls.avgPriority_.cpu.data::samples       352.00                       # Average QoS priority value for accepted requests
system.mem_ctrls.priorityMinLatency      0.000000018750                       # per QoS priority minimum request to response latency (s)
system.mem_ctrls.priorityMaxLatency      0.000000570250                       # per QoS priority maximum request to response latency (s)
system.mem_ctrls.numReadWriteTurnArounds            0                       # Number of turnarounds from READ to WRITE
system.mem_ctrls.numWriteReadTurnArounds            0                       # Number of turnarounds from WRITE to READ
system.mem_ctrls.numStayReadState                1685                       # Number of times bus staying in READ state
system.mem_ctrls.numStayWriteState                  0                       # Number of times bus staying in WRITE state
system.mem_ctrls.readReqs                         338                       # Number of read requests accepted
system.mem_ctrls.writeReqs                          0                       # Number of write requests accepted
system.mem_ctrls.readBursts                      1352                       # Number of controller read bursts, including those serviced by the write queue
system.mem_ctrls.writeBursts                        0                       # Number of controller write bursts, including those merged in the write queue
system.mem_ctrls.servicedByWrQ                      0                       # Number of controller read bursts serviced by the write queue
system.mem_ctrls.mergedWrBursts                     0                       # Number of controller write bursts merged with an existing one
system.mem_ctrls.neitherReadNorWriteReqs            0                       # Number of requests that are neither read nor write
system.mem_ctrls.avgRdQLen                       4.41                       # Average read queue length when enqueuing
system.mem_ctrls.avgWrQLen                       0.00                       # Average write queue length when enqueuing
system.mem_ctrls.numRdRetry                         0                       # Number of times read queue was full causing retry
system.mem_ctrls.numWrRetry                         0                       # Number of times write queue was full causing retry
system.mem_ctrls.readPktSize::0                     0                       # Read request sizes (log2)
system.mem_ctrls.readPktSize::1                     0                       # Read request sizes (log2)
system.mem_ctrls.readPktSize::2                     0                       # Read request sizes (log2)
system.mem_ctrls.readPktSize::3                     0                       # Read request sizes (log2)
system.mem_ctrls.readPktSize::4                     0                       # Read request sizes (log2)
system.mem_ctrls.readPktSize::5                     0                       # Read request sizes (log2)
system.mem_ctrls.readPktSize::6                  1352                       # Read request sizes (log2)
system.mem_ctrls.readPktSize::7                     0                       # Read request sizes (log2)
system.mem_ctrls.readPktSize::8                     0                       # Read request sizes (log2)
system.mem_ctrls.writePktSize::0                    0                       # Write request sizes (log2)
system.mem_ctrls.writePktSize::1                    0                       # Write request sizes (log2)
system.mem_ctrls.writePktSize::2                    0                       # Write request sizes (log2)
system.mem_ctrls.writePktSize::3                    0                       # Write request sizes (log2)
system.mem_ctrls.writePktSize::4                    0                       # Write request sizes (log2)
system.mem_ctrls.writePktSize::5                    0                       # Write request sizes (log2)
system.mem_ctrls.writePktSize::6                    0                       # Write request sizes (log2)
system.mem_ctrls.writePktSize::7                    0                       # Write request sizes (log2)
system.mem_ctrls.writePktSize::8                    0                       # Write request sizes (log2)
system.mem_ctrls.rdQLenPdf::0                     302                       # What read queue length does an incoming req see
system.mem_ctrls.rdQLenPdf::1                     302                       # What read queue length does an incoming req see
system.mem_ctrls.rdQLenPdf::2                     303                       # What read queue length does an incoming req see
system.mem_ctrls.rdQLenPdf::3                     304                       # What read queue length does an incoming req see
system.mem_ctrls.rdQLenPdf::4                      34                       # What read queue length does an incoming req see
system.mem_ctrls.rdQLenPdf::5                      34                       # What read queue length does an incoming req see
system.mem_ctrls.rdQLenPdf::6                      33                       # What read queue length does an incoming req see
system.mem_ctrls.rdQLenPdf::7                      32                       # What read queue length does an incoming req see
system.mem_ctrls.rdQLenPdf::8                       2                       # What read queue length does an incoming req see
system.mem_ctrls.rdQLenPdf::9                       2                       # What read queue length does an incoming req see
system.mem_ctrls.rdQLenPdf::10                      2                       # What read queue length does an incoming req see
system.mem_ctrls.rdQLenPdf::11                      2                       # What read queue length does an incoming req see
system.mem_ctrls.rdQLenPdf::12                      0                       # What read queue length does an incoming req see
system.mem_ctrls.rdQLenPdf::13                      0                       # What read queue length does an incoming req see
system.mem_ctrls.rdQLenPdf::14                      0                       # What read queue length does an incoming req see
system.mem_ctrls.rdQLenPdf::15                      0                       # What read queue length does an incoming req see
system.mem_ctrls.rdQLenPdf::16                      0                       # What read queue length does an incoming req see
system.mem_ctrls.rdQLenPdf::17                      0                       # What read queue length does an incoming req see
system.mem_ctrls.rdQLenPdf::18                      0                       # What read queue length does an incoming req see
[...]
system.mem_ctrls.dram.bytes_inst_read::total        64000                       # Number of instructions bytes read from this memory
system.mem_ctrls.dram.num_reads::.cpu.inst          250                       # Number of read requests responded to by this memory
system.mem_ctrls.dram.num_reads::.cpu.data           88                       # Number of read requests responded to by this memory
system.mem_ctrls.dram.num_reads::total            338                       # Number of read requests responded to by this memory
system.mem_ctrls.dram.bw_read::.cpu.inst   1565232278                       # Total read bandwidth from this memory (bytes/s)
system.mem_ctrls.dram.bw_read::.cpu.data    550961762                       # Total read bandwidth from this memory (bytes/s)
system.mem_ctrls.dram.bw_read::total       2116194040                       # Total read bandwidth from this memory (bytes/s)
system.mem_ctrls.dram.bw_inst_read::.cpu.inst   1565232278                       # Instruction read bandwidth from this memory (bytes/s)
system.mem_ctrls.dram.bw_inst_read::total   1565232278                       # Instruction read bandwidth from this memory (bytes/s)
system.mem_ctrls.dram.bw_total::.cpu.inst   1565232278                       # Total bandwidth to/from this memory (bytes/s)
system.mem_ctrls.dram.bw_total::.cpu.data    550961762                       # Total bandwidth to/from this memory (bytes/s)
system.mem_ctrls.dram.bw_total::total      2116194040                       # Total bandwidth to/from this memory (bytes/s)
system.mem_ctrls.dram.readBursts                 1352                       # Number of DRAM read bursts
system.mem_ctrls.dram.writeBursts                   0                       # Number of DRAM write bursts
system.mem_ctrls.dram.perBankRdBursts::0           96                       # Per bank write bursts
system.mem_ctrls.dram.perBankRdBursts::1          128                       # Per bank write bursts
system.mem_ctrls.dram.perBankRdBursts::2          116                       # Per bank write bursts
system.mem_ctrls.dram.perBankRdBursts::3          104                       # Per bank write bursts
system.mem_ctrls.dram.perBankRdBursts::4           36                       # Per bank write bursts
system.mem_ctrls.dram.perBankRdBursts::5           48                       # Per bank write bursts
system.mem_ctrls.dram.perBankRdBursts::6           88                       # Per bank write bursts
system.mem_ctrls.dram.perBankRdBursts::7           52                       # Per bank write bursts
system.mem_ctrls.dram.perBankRdBursts::8           68                       # Per bank write bursts
system.mem_ctrls.dram.perBankRdBursts::9           28                       # Per bank write bursts
system.mem_ctrls.dram.perBankRdBursts::10           56                       # Per bank write bursts
system.mem_ctrls.dram.perBankRdBursts::11          108                       # Per bank write bursts
system.mem_ctrls.dram.perBankRdBursts::12          112                       # Per bank write bursts
system.mem_ctrls.dram.perBankRdBursts::13           92                       # Per bank write bursts
system.mem_ctrls.dram.perBankRdBursts::14          116                       # Per bank write bursts
system.mem_ctrls.dram.perBankRdBursts::15          104                       # Per bank write bursts
system.mem_ctrls.dram.perBankWrBursts::0            0                       # Per bank write bursts
system.mem_ctrls.dram.perBankWrBursts::1            0                       # Per bank write bursts
system.mem_ctrls.dram.perBankWrBursts::2            0                       # Per bank write bursts
system.mem_ctrls.dram.perBankWrBursts::3            0                       # Per bank write bursts
system.mem_ctrls.dram.perBankWrBursts::4            0                       # Per bank write bursts
system.mem_ctrls.dram.perBankWrBursts::5            0                       # Per bank write bursts
system.mem_ctrls.dram.perBankWrBursts::6            0                       # Per bank write bursts
system.mem_ctrls.dram.perBankWrBursts::7            0                       # Per bank write bursts
system.mem_ctrls.dram.perBankWrBursts::8            0                       # Per bank write bursts
system.mem_ctrls.dram.perBankWrBursts::9            0                       # Per bank write bursts
system.mem_ctrls.dram.perBankWrBursts::10            0                       # Per bank write bursts
system.mem_ctrls.dram.perBankWrBursts::11            0                       # Per bank write bursts
system.mem_ctrls.dram.perBankWrBursts::12            0                       # Per bank write bursts
system.mem_ctrls.dram.perBankWrBursts::13            0                       # Per bank write bursts
system.mem_ctrls.dram.perBankWrBursts::14            0                       # Per bank write bursts
system.mem_ctrls.dram.perBankWrBursts::15            0                       # Per bank write bursts
system.mem_ctrls.dram.totQLat                25905000                       # Total ticks spent queuing
system.mem_ctrls.dram.totBusLat               6760000                       # Total ticks spent in databus transfers
system.mem_ctrls.dram.totMemAccLat           51255000                       # Total ticks spent from burst creation until serviced by the DRAM
system.mem_ctrls.dram.avgQLat                19160.50                       # Average queueing delay per DRAM burst
system.mem_ctrls.dram.avgBusLat               5000.00                       # Average bus latency per DRAM burst
system.mem_ctrls.dram.avgMemAccLat           37910.50                       # Average memory access latency per DRAM burst
system.mem_ctrls.dram.readRowHits                1207                       # Number of row buffer hits during reads
system.mem_ctrls.dram.writeRowHits                  0                       # Number of row buffer hits during writes
system.mem_ctrls.dram.readRowHitRate            89.28                       # Row buffer hit rate for reads
system.mem_ctrls.dram.writeRowHitRate             nan                       # Row buffer hit rate for writes
system.mem_ctrls.dram.bytesPerActivate::samples          139                       # Bytes accessed per row activation
system.mem_ctrls.dram.bytesPerActivate::mean   602.244604                       # Bytes accessed per row activation
system.mem_ctrls.dram.bytesPerActivate::gmean   515.482577                       # Bytes accessed per row activation
system.mem_ctrls.dram.bytesPerActivate::stdev   317.094094                       # Bytes accessed per row activation
system.mem_ctrls.dram.bytesPerActivate::256-383           49     35.25%     35.25% # Bytes accessed per row activation
system.mem_ctrls.dram.bytesPerActivate::512-639           33     23.74%     58.99% # Bytes accessed per row activation
system.mem_ctrls.dram.bytesPerActivate::768-895           16     11.51%     70.50% # Bytes accessed per row activation
system.mem_ctrls.dram.bytesPerActivate::1024-1151           41     29.50%    100.00% # Bytes accessed per row activation
system.mem_ctrls.dram.bytesPerActivate::total          139                       # Bytes accessed per row activation
system.mem_ctrls.dram.bytesRead                 86528                       # Total number of bytes read from DRAM
system.mem_ctrls.dram.bytesWritten                  0                       # Total number of bytes written to DRAM
system.mem_ctrls.dram.avgRdBW             2116.194040                       # Average DRAM read bandwidth in MiBytes/s
system.mem_ctrls.dram.avgWrBW                       0                       # Average DRAM write bandwidth in MiBytes/s
system.mem_ctrls.dram.peakBW                 12800.00                       # Theoretical peak bandwidth in MiByte/s
system.mem_ctrls.dram.busUtil                   16.53                       # Data bus utilization in percentage
system.mem_ctrls.dram.busUtilRead               16.53                       # Data bus utilization in percentage for reads
system.mem_ctrls.dram.busUtilWrite               0.00                       # Data bus utilization in percentage for writes
system.mem_ctrls.dram.pageHitRate               89.28                       # Row buffer hit rate, read and write combined
system.mem_ctrls.dram.power_state.pwrStateResidencyTicks::UNDEFINED     40888500                       # Cumulative time (in ticks) in various power states
system.mem_ctrls.dram.rank0.actEnergy          528360                       # Energy for activate commands per rank (pJ)
system.mem_ctrls.dram.rank0.preEnergy          269445                       # Energy for precharge commands per rank (pJ)
system.mem_ctrls.dram.rank0.readEnergy        4769520                       # Energy for read commands per rank (pJ)
system.mem_ctrls.dram.rank0.writeEnergy             0                       # Energy for write commands per rank (pJ)
system.mem_ctrls.dram.rank0.refreshEnergy 3073200.000000                       # Energy for refresh commands per rank (pJ)
system.mem_ctrls.dram.rank0.actBackEnergy     18042210                       # Energy for active background per rank (pJ)
system.mem_ctrls.dram.rank0.preBackEnergy       507840                       # Energy for precharge background per rank (pJ)
system.mem_ctrls.dram.rank0.actPowerDownEnergy            0                       # Energy for active power-down per rank (pJ)
system.mem_ctrls.dram.rank0.prePowerDownEnergy            0                       # Energy for precharge power-down per rank (pJ)
system.mem_ctrls.dram.rank0.selfRefreshEnergy            0                       # Energy for self refresh per rank (pJ)
system.mem_ctrls.dram.rank0.totalEnergy      27190575                       # Total energy per rank (pJ)
system.mem_ctrls.dram.rank0.averagePower   664.993213                       # Core power per rank (mW)
system.mem_ctrls.dram.rank0.totalIdleTime            0                       # Total Idle time Per DRAM Rank
system.mem_ctrls.dram.rank0.pwrStateTime::IDLE      1156750                       # Time in different power states
system.mem_ctrls.dram.rank0.pwrStateTime::REF      1300000                       # Time in different power states
system.mem_ctrls.dram.rank0.pwrStateTime::SREF            0                       # Time in different power states
system.mem_ctrls.dram.rank0.pwrStateTime::PRE_PDN            0                       # Time in different power states
system.mem_ctrls.dram.rank0.pwrStateTime::ACT     38431750                       # Time in different power states
system.mem_ctrls.dram.rank0.pwrStateTime::ACT_PDN            0                       # Time in different power states
system.mem_ctrls.dram.rank1.actEnergy          506940                       # Energy for activate commands per rank (pJ)
system.mem_ctrls.dram.rank1.preEnergy          258060                       # Energy for precharge commands per rank (pJ)
system.mem_ctrls.dram.rank1.readEnergy        4883760                       # Energy for read commands per rank (pJ)
system.mem_ctrls.dram.rank1.writeEnergy             0                       # Energy for write commands per rank (pJ)
system.mem_ctrls.dram.rank1.refreshEnergy 3073200.000000                       # Energy for refresh commands per rank (pJ)
system.mem_ctrls.dram.rank1.actBackEnergy     17797110                       # Energy for active background per rank (pJ)
system.mem_ctrls.dram.rank1.preBackEnergy       714240                       # Energy for precharge background per rank (pJ)
system.mem_ctrls.dram.rank1.actPowerDownEnergy            0                       # Energy for active power-down per rank (pJ)
system.mem_ctrls.dram.rank1.prePowerDownEnergy            0                       # Energy for precharge power-down per rank (pJ)
system.mem_ctrls.dram.rank1.selfRefreshEnergy            0                       # Energy for self refresh per rank (pJ)
system.mem_ctrls.dram.rank1.totalEnergy      27233310                       # Total energy per rank (pJ)
system.mem_ctrls.dram.rank1.averagePower   666.038373                       # Core power per rank (mW)
system.mem_ctrls.dram.rank1.totalIdleTime            0                       # Total Idle time Per DRAM Rank
system.mem_ctrls.dram.rank1.pwrStateTime::IDLE      1719500                       # Time in different power states
system.mem_ctrls.dram.rank1.pwrStateTime::REF      1300000                       # Time in different power states
system.mem_ctrls.dram.rank1.pwrStateTime::SREF            0                       # Time in different power states
system.mem_ctrls.dram.rank1.pwrStateTime::PRE_PDN            0                       # Time in different power states
system.mem_ctrls.dram.rank1.pwrStateTime::ACT     37869000                       # Time in different power states
system.mem_ctrls.dram.rank1.pwrStateTime::ACT_PDN            0                       # Time in different power states
system.mem_ctrls.power_state.pwrStateResidencyTicks::UNDEFINED     40888500                       # Cumulative time (in ticks) in various power states
system.membus.trans_dist::ReadResp                307                       # Transaction distribution
system.membus.trans_dist::ReadExReq                31                       # Transaction distribution
system.membus.trans_dist::ReadExResp               31                       # Transaction distribution
system.membus.trans_dist::ReadSharedReq           307                       # Transaction distribution
system.membus.pkt_count_system.l2.mem_side_port::system.mem_ctrls.port          676                       # Packet count per connected requestor and responder (bytes)
system.membus.pkt_count::total                    676                       # Packet count per connected requestor and responder (bytes)
system.membus.pkt_size_system.l2.mem_side_port::system.mem_ctrls.port        86528                       # Cumulative packet size per connected requestor and responder (bytes)
system.membus.pkt_size::total                   86528                       # Cumulative packet size per connected requestor and responder (bytes)
system.membus.snoops                                0                       # Total snoops (count)
system.membus.snoopTraffic                          0                       # Total snoop traffic (bytes)
system.membus.snoop_fanout::samples               338                       # Request fanout histogram
system.membus.snoop_fanout::mean                    0                       # Request fanout histogram
system.membus.snoop_fanout::stdev                   0                       # Request fanout histogram
system.membus.snoop_fanout::underflows              0      0.00%      0.00% # Request fanout histogram
system.membus.snoop_fanout::0                     338    100.00%    100.00% # Request fanout histogram
system.membus.snoop_fanout::1                       0      0.00%    100.00% # Request fanout histogram
system.membus.snoop_fanout::overflows               0      0.00%    100.00% # Request fanout histogram
system.membus.snoop_fanout::min_value               0                       # Request fanout histogram
system.membus.snoop_fanout::max_value               0                       # Request fanout histogram
system.membus.snoop_fanout::total                 338                       # Request fanout histogram
system.membus.power_state.pwrStateResidencyTicks::UNDEFINED     40888500                       # Cumulative time (in ticks) in various power states
system.membus.reqLayer0.occupancy              425000                       # Layer occupancy (ticks)
system.membus.reqLayer0.utilization               1.0                       # Layer utilization (%)
system.membus.respLayer1.occupancy            5878250                       # Layer occupancy (ticks)
system.membus.respLayer1.utilization             14.4                       # Layer utilization (%)
system.tol2bus.trans_dist::ReadResp               382                       # Transaction distribution
system.tol2bus.trans_dist::WritebackDirty            2                       # Transaction distribution
system.tol2bus.trans_dist::WritebackClean          182                       # Transaction distribution
system.tol2bus.trans_dist::CleanEvict               2                       # Transaction distribution
system.tol2bus.trans_dist::ReadExReq               31                       # Transaction distribution
system.tol2bus.trans_dist::ReadExResp              31                       # Transaction distribution
system.tol2bus.trans_dist::ReadCleanReq           303                       # Transaction distribution
system.tol2bus.trans_dist::ReadSharedReq           79                       # Transaction distribution
system.tol2bus.pkt_count_system.cpu.icache.mem_side_port::system.l2.cpu_side_port          788                       # Packet count per connected requestor and responder (bytes)
system.tol2bus.pkt_count_system.cpu.dcache.mem_side_port::system.l2.cpu_side_port          224                       # Packet count per connected requestor and responder (bytes)
system.tol2bus.pkt_count::total                  1012                       # Packet count per connected requestor and responder (bytes)
system.tol2bus.pkt_size_system.cpu.icache.mem_side_port::system.l2.cpu_side_port       124160                       # Cumulative packet size per connected requestor and responder (bytes)
system.tol2bus.pkt_size_system.cpu.dcache.mem_side_port::system.l2.cpu_side_port        28672                       # Cumulative packet size per connected requestor and responder (bytes)
system.tol2bus.pkt_size::total                 152832                       # Cumulative packet size per connected requestor and responder (bytes)
system.tol2bus.snoops                               0                       # Total snoops (count)
system.tol2bus.snoopTraffic                         0                       # Total snoop traffic (bytes)
system.tol2bus.snoop_fanout::samples              413                       # Request fanout histogram
system.tol2bus.snoop_fanout::mean            0.077482                       # Request fanout histogram
system.tol2bus.snoop_fanout::stdev           0.267679                       # Request fanout histogram
system.tol2bus.snoop_fanout::underflows             0      0.00%      0.00% # Request fanout histogram
system.tol2bus.snoop_fanout::0                    381     92.25%     92.25% # Request fanout histogram
system.tol2bus.snoop_fanout::1                     32      7.75%    100.00% # Request fanout histogram
system.tol2bus.snoop_fanout::2                      0      0.00%    100.00% # Request fanout histogram
system.tol2bus.snoop_fanout::overflows              0      0.00%    100.00% # Request fanout histogram
system.tol2bus.snoop_fanout::min_value              0                       # Request fanout histogram
system.tol2bus.snoop_fanout::max_value              1                       # Request fanout histogram
system.tol2bus.snoop_fanout::total                413                       # Request fanout histogram
system.tol2bus.power_state.pwrStateResidencyTicks::UNDEFINED     40888500                       # Cumulative time (in ticks) in various power states
system.tol2bus.reqLayer0.occupancy            1035500                       # Layer occupancy (ticks)
system.tol2bus.reqLayer0.utilization              2.5                       # Layer utilization (%)
system.tol2bus.respLayer0.occupancy           1363500                       # Layer occupancy (ticks)
system.tol2bus.respLayer0.utilization             3.3                       # Layer utilization (%)
system.tol2bus.respLayer1.occupancy            498493                       # Layer occupancy (ticks)
system.tol2bus.respLayer1.utilization             1.2                       # Layer utilization (%)
system.voltage_domain.voltage                       1                       # Voltage in Volts

---------- End Simulation Statistics   ----------
