
---------- Begin Simulation Statistics ----------
final_tick                               882386132500                       # Number of ticks from beginning of simulation (restored from checkpoints and never reset)
host_inst_rate                                 171267                       # Simulator instruction rate (inst/s)
host_mem_usage                                 679428                       # Number of bytes of host memory used
host_op_rate                                   315505                       # Simulator op (including micro ops) rate (op/s)
host_seconds                                   583.89                       # Real time elapsed on the host
host_tick_rate                             1511231718                       # Simulator tick rate (ticks/s)
sim_freq                                 1000000000000                       # Frequency of simulated ticks
sim_insts                                   100000000                       # Number of instructions simulated
sim_ops                                     184218810                       # Number of ops (including micro ops) simulated
sim_seconds                                  0.882386                       # Number of seconds simulated
sim_ticks                                882386132500                       # Number of ticks simulated
system.cpu.committedInsts                   100000000                       # Number of instructions committed
system.cpu.committedOps                     184218810                       # Number of ops (including micro ops) committed
system.cpu.cpi                              17.647723                       # CPI: cycles per instruction
system.cpu.discardedOps                          4338                       # Number of ops (including micro ops) which were discarded before commit
system.cpu.idleCycles                      1505992006                       # Total number of cycles that the object has spent stopped
system.cpu.ipc                               0.056665                       # IPC: instructions per cycle
system.cpu.numCycles                       1764772265                       # number of cpu cycles simulated
system.cpu.numFetchSuspends                         0                       # Number of times Execute suspended instruction fetching
system.cpu.numWorkItemsCompleted                    0                       # number of work items this cpu completed
system.cpu.numWorkItemsStarted                      0                       # number of work items this cpu started
system.cpu.op_class_0::No_OpClass                   0      0.00%      0.00% # Class of committed instruction
system.cpu.op_class_0::IntAlu                97640467     53.00%     53.00% # Class of committed instruction
system.cpu.op_class_0::IntMult                 114702      0.06%     53.06% # Class of committed instruction
system.cpu.op_class_0::IntDiv                       0      0.00%     53.06% # Class of committed instruction
system.cpu.op_class_0::FloatAdd                     0      0.00%     53.06% # Class of committed instruction
system.cpu.op_class_0::FloatCmp                     0      0.00%     53.06% # Class of committed instruction
system.cpu.op_class_0::FloatCvt                     0      0.00%     53.06% # Class of committed instruction
system.cpu.op_class_0::FloatMult                    0      0.00%     53.06% # Class of committed instruction
system.cpu.op_class_0::FloatMultAcc                 0      0.00%     53.06% # Class of committed instruction
system.cpu.op_class_0::FloatDiv                     0      0.00%     53.06% # Class of committed instruction
system.cpu.op_class_0::FloatMisc                    0      0.00%     53.06% # Class of committed instruction
system.cpu.op_class_0::FloatSqrt                    0      0.00%     53.06% # Class of committed instruction
system.cpu.op_class_0::SimdAdd                      8      0.00%     53.06% # Class of committed instruction
system.cpu.op_class_0::SimdAddAcc                   0      0.00%     53.06% # Class of committed instruction
system.cpu.op_class_0::SimdAlu                     10      0.00%     53.06% # Class of committed instruction
system.cpu.op_class_0::SimdCmp                      8      0.00%     53.06% # Class of committed instruction
system.cpu.op_class_0::SimdCvt                      0      0.00%     53.06% # Class of committed instruction
system.cpu.op_class_0::SimdMisc                     1      0.00%     53.06% # Class of committed instruction
system.cpu.op_class_0::SimdMult                     0      0.00%     53.06% # Class of committed instruction
system.cpu.op_class_0::SimdMultAcc                  0      0.00%     53.06% # Class of committed instruction
system.cpu.op_class_0::SimdShift                    0      0.00%     53.06% # Class of committed instruction
system.cpu.op_class_0::SimdShiftAcc                 0      0.00%     53.06% # Class of committed instruction
system.cpu.op_class_0::SimdDiv                      0      0.00%     53.06% # Class of committed instruction
system.cpu.op_class_0::SimdSqrt                     0      0.00%     53.06% # Class of committed instruction
system.cpu.op_class_0::SimdFloatAdd                 0      0.00%     53.06% # Class of committed instruction
system.cpu.op_class_0::SimdFloatAlu                 0      0.00%     53.06% # Class of committed instruction
system.cpu.op_class_0::SimdFloatCmp                 0      0.00%     53.06% # Class of committed instruction
system.cpu.op_class_0::SimdFloatCvt                 0      0.00%     53.06% # Class of committed instruction
system.cpu.op_class_0::SimdFloatDiv                 0      0.00%     53.06% # Class of committed instruction
system.cpu.op_class_0::SimdFloatMisc               24      0.00%     53.06% # Class of committed instruction
system.cpu.op_class_0::SimdFloatMult                0      0.00%     53.06% # Class of committed instruction
system.cpu.op_class_0::SimdFloatMultAcc             0      0.00%     53.06% # Class of committed instruction
system.cpu.op_class_0::SimdFloatSqrt                0      0.00%     53.06% # Class of committed instruction
system.cpu.op_class_0::SimdReduceAdd                0      0.00%     53.06% # Class of committed instruction
system.cpu.op_class_0::SimdReduceAlu                0      0.00%     53.06% # Class of committed instruction
system.cpu.op_class_0::SimdReduceCmp                0      0.00%     53.06% # Class of committed instruction
system.cpu.op_class_0::SimdFloatReduceAdd            0      0.00%     53.06% # Class of committed instruction
system.cpu.op_class_0::SimdFloatReduceCmp            0      0.00%     53.06% # Class of committed instruction
system.cpu.op_class_0::SimdAes                      0      0.00%     53.06% # Class of committed instruction
system.cpu.op_class_0::SimdAesMix                   0      0.00%     53.06% # Class of committed instruction
system.cpu.op_class_0::SimdSha1Hash                 0      0.00%     53.06% # Class of committed instruction
system.cpu.op_class_0::SimdSha1Hash2                0      0.00%     53.06% # Class of committed instruction
system.cpu.op_class_0::SimdSha256Hash               0      0.00%     53.06% # Class of committed instruction
system.cpu.op_class_0::SimdSha256Hash2              0      0.00%     53.06% # Class of committed instruction
system.cpu.op_class_0::SimdShaSigma2                0      0.00%     53.06% # Class of committed instruction
system.cpu.op_class_0::SimdShaSigma3                0      0.00%     53.06% # Class of committed instruction
system.cpu.op_class_0::SimdPredAlu                  0      0.00%     53.06% # Class of committed instruction
system.cpu.op_class_0::MemRead                2082677      1.13%     54.20% # Class of committed instruction
system.cpu.op_class_0::MemWrite              84380913     45.80%    100.00% # Class of committed instruction
system.cpu.op_class_0::FloatMemRead                 0      0.00%    100.00% # Class of committed instruction
system.cpu.op_class_0::FloatMemWrite                0      0.00%    100.00% # Class of committed instruction
system.cpu.op_class_0::IprAccess                    0      0.00%    100.00% # Class of committed instruction
system.cpu.op_class_0::InstPrefetch                 0      0.00%    100.00% # Class of committed instruction
system.cpu.op_class_0::total                184218810                       # Class of committed instruction
system.cpu.tickCycles                       258780259                       # Number of cycles that the object actually ticked
system.cpu.workload.numSyscalls                    19                       # Number of system calls
system.membus.snoop_filter.hit_multi_requests            0                       # Number of requests hitting in the snoop filter with multiple (>1) holders of the requested data.
system.membus.snoop_filter.hit_multi_snoops            0                       # Number of snoops hitting in the snoop filter with multiple (>1) holders of the requested data.
system.membus.snoop_filter.hit_single_requests     10461019                       # Number of requests hitting in the snoop filter with a single holder of the requested data.
system.membus.snoop_filter.hit_single_snoops            0                       # Number of snoops hitting in the snoop filter with a single holder of the requested data.
system.membus.snoop_filter.tot_requests      20988186                       # Total number of requests made to the snoop filter.
system.membus.snoop_filter.tot_snoops               0                       # Total number of snoops made to the snoop filter.
system.tol2bus.snoop_filter.hit_multi_requests          124                       # Number of requests hitting in the snoop filter with multiple (>1) holders of the requested data.
system.tol2bus.snoop_filter.hit_multi_snoops            0                       # Number of snoops hitting in the snoop filter with multiple (>1) holders of the requested data.
system.tol2bus.snoop_filter.hit_single_requests     10526135                       # Number of requests hitting in the snoop filter with a single holder of the requested data.
system.tol2bus.snoop_filter.hit_single_snoops          747                       # Number of snoops hitting in the snoop filter with a single holder of the requested data.
system.tol2bus.snoop_filter.tot_requests     21054940                       # Total number of requests made to the snoop filter.
system.tol2bus.snoop_filter.tot_snoops            747                       # Total number of snoops made to the snoop filter.
system.clk_domain.clock                          1000                       # Clock period in ticks
system.cpu.branchPred.lookups                10657897                       # Number of BP lookups
system.cpu.branchPred.condPredicted          10649830                       # Number of conditional branches predicted
system.cpu.branchPred.condIncorrect              1451                       # Number of conditional branches incorrect
system.cpu.branchPred.BTBLookups             10650032                       # Number of BTB lookups
system.cpu.branchPred.BTBHits                10648860                       # Number of BTB hits
system.cpu.branchPred.BTBHitPct             99.988995                       # BTB Hit Percentage
system.cpu.branchPred.RASUsed                    2682                       # Number of times the RAS was used to get a target.
system.cpu.branchPred.RASIncorrect                  0                       # Number of incorrect RAS predictions.
system.cpu.branchPred.indirectLookups             182                       # Number of indirect predictor lookups.
system.cpu.branchPred.indirectHits                 18                       # Number of indirect target hits.
system.cpu.branchPred.indirectMisses              164                       # Number of indirect misses.
system.cpu.branchPred.indirectMispredicted          106                       # Number of mispredicted indirect branches.
system.cpu.dcache.demand_hits::.cpu.data     65332044                       # number of demand (read+write) hits
system.cpu.dcache.demand_hits::total         65332044                       # number of demand (read+write) hits
system.cpu.dcache.overall_hits::.cpu.data     65332074                       # number of overall hits
system.cpu.dcache.overall_hits::total        65332074                       # number of overall hits
system.cpu.dcache.demand_misses::.cpu.data     21048696                       # number of demand (read+write) misses
system.cpu.dcache.demand_misses::total       21048696                       # number of demand (read+write) misses
system.cpu.dcache.overall_misses::.cpu.data     21048737                       # number of overall misses
system.cpu.dcache.overall_misses::total      21048737                       # number of overall misses
system.cpu.dcache.demand_miss_latency::.cpu.data 1674486068499                       # number of demand (read+write) miss cycles
system.cpu.dcache.demand_miss_latency::total 1674486068499                       # number of demand (read+write) miss cycles
system.cpu.dcache.overall_miss_latency::.cpu.data 1674486068499                       # number of overall miss cycles
system.cpu.dcache.overall_miss_latency::total 1674486068499                       # number of overall miss cycles
system.cpu.dcache.demand_accesses::.cpu.data     86380740                       # number of demand (read+write) accesses
system.cpu.dcache.demand_accesses::total     86380740                       # number of demand (read+write) accesses
system.cpu.dcache.overall_accesses::.cpu.data     86380811                       # number of overall (read+write) accesses
system.cpu.dcache.overall_accesses::total     86380811                       # number of overall (read+write) accesses
system.cpu.dcache.demand_miss_rate::.cpu.data     0.243673                       # miss rate for demand accesses
system.cpu.dcache.demand_miss_rate::total     0.243673                       # miss rate for demand accesses
system.cpu.dcache.overall_miss_rate::.cpu.data     0.243674                       # miss rate for overall accesses
system.cpu.dcache.overall_miss_rate::total     0.243674                       # miss rate for overall accesses
system.cpu.dcache.demand_avg_miss_latency::.cpu.data 79552.959884                       # average overall miss latency
system.cpu.dcache.demand_avg_miss_latency::total 79552.959884                       # average overall miss latency
system.cpu.dcache.overall_avg_miss_latency::.cpu.data 79552.804926                       # average overall miss latency
system.cpu.dcache.overall_avg_miss_latency::total 79552.804926                       # average overall miss latency
system.cpu.dcache.blocked_cycles::no_mshrs          102                       # number of cycles access was blocked
system.cpu.dcache.blocked_cycles::no_targets            0                       # number of cycles access was blocked
system.cpu.dcache.blocked::no_mshrs                 1                       # number of cycles access was blocked
system.cpu.dcache.blocked::no_targets               0                       # number of cycles access was blocked
system.cpu.dcache.avg_blocked_cycles::no_mshrs          102                       # average number of cycles each access was blocked
system.cpu.dcache.avg_blocked_cycles::no_targets          nan                       # average number of cycles each access was blocked
system.cpu.dcache.writebacks::.writebacks     10524668                       # number of writebacks
system.cpu.dcache.writebacks::total          10524668                       # number of writebacks
system.cpu.dcache.demand_mshr_hits::.cpu.data     10520922                       # number of demand (read+write) MSHR hits
system.cpu.dcache.demand_mshr_hits::total     10520922                       # number of demand (read+write) MSHR hits
system.cpu.dcache.overall_mshr_hits::.cpu.data     10520922                       # number of overall MSHR hits
system.cpu.dcache.overall_mshr_hits::total     10520922                       # number of overall MSHR hits
system.cpu.dcache.demand_mshr_misses::.cpu.data     10527774                       # number of demand (read+write) MSHR misses
system.cpu.dcache.demand_mshr_misses::total     10527774                       # number of demand (read+write) MSHR misses
system.cpu.dcache.overall_mshr_misses::.cpu.data     10527815                       # number of overall MSHR misses
system.cpu.dcache.overall_mshr_misses::total     10527815                       # number of overall MSHR misses
system.cpu.dcache.demand_mshr_miss_latency::.cpu.data 826949766500                       # number of demand (read+write) MSHR miss cycles
system.cpu.dcache.demand_mshr_miss_latency::total 826949766500                       # number of demand (read+write) MSHR miss cycles
system.cpu.dcache.overall_mshr_miss_latency::.cpu.data 826953431000                       # number of overall MSHR miss cycles
system.cpu.dcache.overall_mshr_miss_latency::total 826953431000                       # number of overall MSHR miss cycles
system.cpu.dcache.demand_mshr_miss_rate::.cpu.data     0.121876                       # mshr miss rate for demand accesses
system.cpu.dcache.demand_mshr_miss_rate::total     0.121876                       # mshr miss rate for demand accesses
system.cpu.dcache.overall_mshr_miss_rate::.cpu.data     0.121877                       # mshr miss rate for overall accesses
system.cpu.dcache.overall_mshr_miss_rate::total     0.121877                       # mshr miss rate for overall accesses
system.cpu.dcache.demand_avg_mshr_miss_latency::.cpu.data 78549.346377                       # average overall mshr miss latency
system.cpu.dcache.demand_avg_mshr_miss_latency::total 78549.346377                       # average overall mshr miss latency
system.cpu.dcache.overall_avg_mshr_miss_latency::.cpu.data 78549.388548                       # average overall mshr miss latency
system.cpu.dcache.overall_avg_mshr_miss_latency::total 78549.388548                       # average overall mshr miss latency
system.cpu.dcache.replacements               10525769                       # number of replacements
system.cpu.dcache.ReadReq_hits::.cpu.data      2042847                       # number of ReadReq hits
system.cpu.dcache.ReadReq_hits::total         2042847                       # number of ReadReq hits
system.cpu.dcache.ReadReq_misses::.cpu.data         1245                       # number of ReadReq misses
system.cpu.dcache.ReadReq_misses::total          1245                       # number of ReadReq misses
system.cpu.dcache.ReadReq_miss_latency::.cpu.data     46771500                       # number of ReadReq miss cycles
system.cpu.dcache.ReadReq_miss_latency::total     46771500                       # number of ReadReq miss cycles
system.cpu.dcache.ReadReq_accesses::.cpu.data      2044092                       # number of ReadReq accesses(hits+misses)
system.cpu.dcache.ReadReq_accesses::total      2044092                       # number of ReadReq accesses(hits+misses)
system.cpu.dcache.ReadReq_miss_rate::.cpu.data     0.000609                       # miss rate for ReadReq accesses
system.cpu.dcache.ReadReq_miss_rate::total     0.000609                       # miss rate for ReadReq accesses
system.cpu.dcache.ReadReq_avg_miss_latency::.cpu.data 37567.469880                       # average ReadReq miss latency
system.cpu.dcache.ReadReq_avg_miss_latency::total 37567.469880                       # average ReadReq miss latency
system.cpu.dcache.ReadReq_mshr_hits::.cpu.data           43                       # number of ReadReq MSHR hits
system.cpu.dcache.ReadReq_mshr_hits::total           43                       # number of ReadReq MSHR hits
system.cpu.dcache.ReadReq_mshr_misses::.cpu.data         1202                       # number of ReadReq MSHR misses
system.cpu.dcache.ReadReq_mshr_misses::total         1202                       # number of ReadReq MSHR misses
system.cpu.dcache.ReadReq_mshr_miss_latency::.cpu.data     43140500                       # number of ReadReq MSHR miss cycles
system.cpu.dcache.ReadReq_mshr_miss_latency::total     43140500                       # number of ReadReq MSHR miss cycles
system.cpu.dcache.ReadReq_mshr_miss_rate::.cpu.data     0.000588                       # mshr miss rate for ReadReq accesses
system.cpu.dcache.ReadReq_mshr_miss_rate::total     0.000588                       # mshr miss rate for ReadReq accesses
system.cpu.dcache.ReadReq_avg_mshr_miss_latency::.cpu.data 35890.599002                       # average ReadReq mshr miss latency
system.cpu.dcache.ReadReq_avg_mshr_miss_latency::total 35890.599002                       # average ReadReq mshr miss latency
system.cpu.dcache.WriteReq_hits::.cpu.data     63289197                       # number of WriteReq hits
system.cpu.dcache.WriteReq_hits::total       63289197                       # number of WriteReq hits
system.cpu.dcache.WriteReq_misses::.cpu.data     21047451                       # number of WriteReq misses
system.cpu.dcache.WriteReq_misses::total     21047451                       # number of WriteReq misses
system.cpu.dcache.WriteReq_miss_latency::.cpu.data 1674439296999                       # number of WriteReq miss cycles
system.cpu.dcache.WriteReq_miss_latency::total 1674439296999                       # number of WriteReq miss cycles
system.cpu.dcache.WriteReq_accesses::.cpu.data     84336648                       # number of WriteReq accesses(hits+misses)
system.cpu.dcache.WriteReq_accesses::total     84336648                       # number of WriteReq accesses(hits+misses)
system.cpu.dcache.WriteReq_miss_rate::.cpu.data     0.249565                       # miss rate for WriteReq accesses
system.cpu.dcache.WriteReq_miss_rate::total     0.249565                       # miss rate for WriteReq accesses
system.cpu.dcache.WriteReq_avg_miss_latency::.cpu.data 79555.443412                       # average WriteReq miss latency
system.cpu.dcache.WriteReq_avg_miss_latency::total 79555.443412                       # average WriteReq miss latency
system.cpu.dcache.WriteReq_mshr_hits::.cpu.data     10520879                       # number of WriteReq MSHR hits
system.cpu.dcache.WriteReq_mshr_hits::total     10520879                       # number of WriteReq MSHR hits
system.cpu.dcache.WriteReq_mshr_misses::.cpu.data     10526572                       # number of WriteReq MSHR misses
system.cpu.dcache.WriteReq_mshr_misses::total     10526572                       # number of WriteReq MSHR misses
system.cpu.dcache.WriteReq_mshr_miss_latency::.cpu.data 826906626000                       # number of WriteReq MSHR miss cycles
system.cpu.dcache.WriteReq_mshr_miss_latency::total 826906626000                       # number of WriteReq MSHR miss cycles
system.cpu.dcache.WriteReq_mshr_miss_rate::.cpu.data     0.124816                       # mshr miss rate for WriteReq accesses
system.cpu.dcache.WriteReq_mshr_miss_rate::total     0.124816                       # mshr miss rate for WriteReq accesses
system.cpu.dcache.WriteReq_avg_mshr_miss_latency::.cpu.data 78554.217460                       # average WriteReq mshr miss latency
system.cpu.dcache.WriteReq_avg_mshr_miss_latency::total 78554.217460                       # average WriteReq mshr miss latency
system.cpu.dcache.SoftPFReq_hits::.cpu.data           30                       # number of SoftPFReq hits
system.cpu.dcache.SoftPFReq_hits::total            30                       # number of SoftPFReq hits
system.cpu.dcache.SoftPFReq_misses::.cpu.data           41                       # number of SoftPFReq misses
system.cpu.dcache.SoftPFReq_misses::total           41                       # number of SoftPFReq misses
system.cpu.dcache.SoftPFReq_accesses::.cpu.data           71                       # number of SoftPFReq accesses(hits+misses)
system.cpu.dcache.SoftPFReq_accesses::total           71                       # number of SoftPFReq accesses(hits+misses)
system.cpu.dcache.SoftPFReq_miss_rate::.cpu.data     0.577465                       # miss rate for SoftPFReq accesses
system.cpu.dcache.SoftPFReq_miss_rate::total     0.577465                       # miss rate for SoftPFReq accesses
system.cpu.dcache.SoftPFReq_mshr_misses::.cpu.data           41                       # number of SoftPFReq MSHR misses
system.cpu.dcache.SoftPFReq_mshr_misses::total           41                       # number of SoftPFReq MSHR misses
system.cpu.dcache.SoftPFReq_mshr_miss_latency::.cpu.data      3664500                       # number of SoftPFReq MSHR miss cycles
system.cpu.dcache.SoftPFReq_mshr_miss_latency::total      3664500                       # number of SoftPFReq MSHR miss cycles
system.cpu.dcache.SoftPFReq_mshr_miss_rate::.cpu.data     0.577465                       # mshr miss rate for SoftPFReq accesses
system.cpu.dcache.SoftPFReq_mshr_miss_rate::total     0.577465                       # mshr miss rate for SoftPFReq accesses
system.cpu.dcache.SoftPFReq_avg_mshr_miss_latency::.cpu.data 89378.048780                       # average SoftPFReq mshr miss latency
system.cpu.dcache.SoftPFReq_avg_mshr_miss_latency::total 89378.048780                       # average SoftPFReq mshr miss latency
system.cpu.dcache.LoadLockedReq_hits::.cpu.data           31                       # number of LoadLockedReq hits
system.cpu.dcache.LoadLockedReq_hits::total           31                       # number of LoadLockedReq hits
system.cpu.dcache.LoadLockedReq_misses::.cpu.data            3                       # number of LoadLockedReq misses
system.cpu.dcache.LoadLockedReq_misses::total            3                       # number of LoadLockedReq misses
system.cpu.dcache.LoadLockedReq_miss_latency::.cpu.data       245000                       # number of LoadLockedReq miss cycles
system.cpu.dcache.LoadLockedReq_miss_latency::total       245000                       # number of LoadLockedReq miss cycles
system.cpu.dcache.LoadLockedReq_accesses::.cpu.data           34                       # number of LoadLockedReq accesses(hits+misses)
system.cpu.dcache.LoadLockedReq_accesses::total           34                       # number of LoadLockedReq accesses(hits+misses)
system.cpu.dcache.LoadLockedReq_miss_rate::.cpu.data     0.088235                       # miss rate for LoadLockedReq accesses
system.cpu.dcache.LoadLockedReq_miss_rate::total     0.088235                       # miss rate for LoadLockedReq accesses
system.cpu.dcache.LoadLockedReq_avg_miss_latency::.cpu.data 81666.666667                       # average LoadLockedReq miss latency
system.cpu.dcache.LoadLockedReq_avg_miss_latency::total 81666.666667                       # average LoadLockedReq miss latency
system.cpu.dcache.LoadLockedReq_mshr_misses::.cpu.data            3                       # number of LoadLockedReq MSHR misses
system.cpu.dcache.LoadLockedReq_mshr_misses::total            3                       # number of LoadLockedReq MSHR misses
system.cpu.dcache.LoadLockedReq_mshr_miss_latency::.cpu.data       242000                       # number of LoadLockedReq MSHR miss cycles
system.cpu.dcache.LoadLockedReq_mshr_miss_latency::total       242000                       # number of LoadLockedReq MSHR miss cycles
system.cpu.dcache.LoadLockedReq_mshr_miss_rate::.cpu.data     0.088235                       # mshr miss rate for LoadLockedReq accesses
system.cpu.dcache.LoadLockedReq_mshr_miss_rate::total     0.088235                       # mshr miss rate for LoadLockedReq accesses
system.cpu.dcache.LoadLockedReq_avg_mshr_miss_latency::.cpu.data 80666.666667                       # average LoadLockedReq mshr miss latency
system.cpu.dcache.LoadLockedReq_avg_mshr_miss_latency::total 80666.666667                       # average LoadLockedReq mshr miss latency
system.cpu.dcache.StoreCondReq_hits::.cpu.data           34                       # number of StoreCondReq hits
system.cpu.dcache.StoreCondReq_hits::total           34                       # number of StoreCondReq hits
system.cpu.dcache.StoreCondReq_accesses::.cpu.data           34                       # number of StoreCondReq accesses(hits+misses)
system.cpu.dcache.StoreCondReq_accesses::total           34                       # number of StoreCondReq accesses(hits+misses)
system.cpu.dcache.power_state.pwrStateResidencyTicks::UNDEFINED 882386132500                       # Cumulative time (in ticks) in various power states
system.cpu.dcache.tags.tagsinuse          2047.010203                       # Cycle average of tags in use
system.cpu.dcache.tags.total_refs            75859956                       # Total number of references to valid blocks.
system.cpu.dcache.tags.sampled_refs          10527817                       # Sample count of references to valid blocks.
system.cpu.dcache.tags.avg_refs              7.205668                       # Average number of references to valid blocks.
system.cpu.dcache.tags.warmup_cycle            176500                       # Cycle when the warmup percentage was hit.
system.cpu.dcache.tags.occ_blocks::.cpu.data  2047.010203                       # Average occupied blocks per requestor
system.cpu.dcache.tags.occ_percent::.cpu.data     0.999517                       # Average percentage of cache occupancy
system.cpu.dcache.tags.occ_percent::total     0.999517                       # Average percentage of cache occupancy
system.cpu.dcache.tags.occ_task_id_blocks::1024         2048                       # Occupied blocks per task id
system.cpu.dcache.tags.age_task_id_blocks_1024::0          117                       # Occupied blocks per task id
system.cpu.dcache.tags.age_task_id_blocks_1024::1         1078                       # Occupied blocks per task id
system.cpu.dcache.tags.age_task_id_blocks_1024::2          853                       # Occupied blocks per task id
system.cpu.dcache.tags.occ_task_id_percent::1024            1                       # Percentage of cache occupancy per task id
system.cpu.dcache.tags.tag_accesses          96908696                       # Number of tag accesses
system.cpu.dcache.tags.data_accesses         96908696                       # Number of data accesses
system.cpu.dcache.tags.power_state.pwrStateResidencyTicks::UNDEFINED 882386132500                       # Cumulative time (in ticks) in various power states
system.cpu.dtb.instHits                             0                       # ITB inst hits
system.cpu.dtb.instMisses                           0                       # ITB inst misses
system.cpu.dtb.readHits                             0                       # DTB read hits
system.cpu.dtb.readMisses                           0                       # DTB read misses
system.cpu.dtb.writeHits                            0                       # DTB write hits
system.cpu.dtb.writeMisses                          0                       # DTB write misses
system.cpu.dtb.inserts                              0                       # Number of times an entry is inserted into the TLB
system.cpu.dtb.flushTlb                             0                       # Number of times complete TLB was flushed
system.cpu.dtb.flushTlbMva                          0                       # Number of times TLB was flushed by MVA
system.cpu.dtb.flushTlbMvaAsid                      0                       # Number of times TLB was flushed by MVA & ASID
system.cpu.dtb.flushTlbAsid                         0                       # Number of times TLB was flushed by ASID
system.cpu.dtb.flushedEntries                       0                       # Number of entries that have been flushed from TLB
system.cpu.dtb.alignFaults                          0                       # Number of TLB faults due to alignment restrictions
system.cpu.dtb.prefetchFaults                       0                       # Number of TLB faults due to prefetch
system.cpu.dtb.domainFaults                         0                       # Number of TLB faults due to domain restrictions
system.cpu.dtb.permsFaults                          0                       # Number of TLB faults due to permissions restrictions
system.cpu.dtb.readAccesses                         0                       # DTB read accesses
system.cpu.dtb.writeAccesses                        0                       # DTB write accesses
system.cpu.dtb.instAccesses                         0                       # ITB inst accesses
system.cpu.dtb.hits                                 0                       # Total TLB (inst and data) hits
system.cpu.dtb.misses                               0                       # Total TLB (inst and data) misses
system.cpu.dtb.accesses                             0                       # Total TLB (inst and data) accesses
system.cpu.dtb.stage2_mmu.stage2_tlb.instHits            0                       # ITB inst hits
system.cpu.dtb.stage2_mmu.stage2_tlb.instMisses            0                       # ITB inst misses
system.cpu.dtb.stage2_mmu.stage2_tlb.readHits            0                       # DTB read hits
system.cpu.dtb.stage2_mmu.stage2_tlb.readMisses            0                       # DTB read misses
system.cpu.dtb.stage2_mmu.stage2_tlb.writeHits            0                       # DTB write hits
system.cpu.dtb.stage2_mmu.stage2_tlb.writeMisses            0                       # DTB write misses
system.cpu.dtb.stage2_mmu.stage2_tlb.inserts            0                       # Number of times an entry is inserted into the TLB
system.cpu.dtb.stage2_mmu.stage2_tlb.flushTlb            0                       # Number of times complete TLB was flushed
system.cpu.dtb.stage2_mmu.stage2_tlb.flushTlbMva            0                       # Number of times TLB was flushed by MVA
system.cpu.dtb.stage2_mmu.stage2_tlb.flushTlbMvaAsid            0                       # Number of times TLB was flushed by MVA & ASID
system.cpu.dtb.stage2_mmu.stage2_tlb.flushTlbAsid            0                       # Number of times TLB was flushed by ASID
system.cpu.dtb.stage2_mmu.stage2_tlb.flushedEntries            0                       # Number of entries that have been flushed from TLB
system.cpu.dtb.stage2_mmu.stage2_tlb.alignFaults            0                       # Number of TLB faults due to alignment restrictions
system.cpu.dtb.stage2_mmu.stage2_tlb.prefetchFaults            0                       # Number of TLB faults due to prefetch
system.cpu.dtb.stage2_mmu.stage2_tlb.domainFaults            0                       # Number of TLB faults due to domain restrictions
system.cpu.dtb.stage2_mmu.stage2_tlb.permsFaults            0                       # Number of TLB faults due to permissions restrictions
system.cpu.dtb.stage2_mmu.stage2_tlb.readAccesses            0                       # DTB read accesses
system.cpu.dtb.stage2_mmu.stage2_tlb.writeAccesses            0                       # DTB write accesses
system.cpu.dtb.stage2_mmu.stage2_tlb.instAccesses            0                       # ITB inst accesses
system.cpu.dtb.stage2_mmu.stage2_tlb.hits            0                       # Total TLB (inst and data) hits
system.cpu.dtb.stage2_mmu.stage2_tlb.misses            0                       # Total TLB (inst and data) misses
system.cpu.dtb.stage2_mmu.stage2_tlb.accesses            0                       # Total TLB (inst and data) accesses
system.cpu.dtb.stage2_mmu.stage2_tlb.walker.walks            0                       # Table walker walks requested
system.cpu.dtb.stage2_mmu.stage2_tlb.walker.requestOrigin_Requested::Data            0                       # Table walker requests started/completed, data/inst
system.cpu.dtb.stage2_mmu.stage2_tlb.walker.requestOrigin_Requested::Inst            0                       # Table walker requests started/completed, data/inst
system.cpu.dtb.stage2_mmu.stage2_tlb.walker.requestOrigin_Requested::total            0                       # Table walker requests started/completed, data/inst
system.cpu.dtb.stage2_mmu.stage2_tlb.walker.requestOrigin_Completed::Data            0                       # Table walker requests started/completed, data/inst
system.cpu.dtb.stage2_mmu.stage2_tlb.walker.requestOrigin_Completed::Inst            0                       # Table walker requests started/completed, data/inst
system.cpu.dtb.stage2_mmu.stage2_tlb.walker.requestOrigin_Completed::total            0                       # Table walker requests started/completed, data/inst
system.cpu.dtb.stage2_mmu.stage2_tlb.walker.requestOrigin::total            0                       # Table walker requests started/completed, data/inst
system.cpu.dtb.stage2_mmu.stage2_tlb.walker.power_state.pwrStateResidencyTicks::UNDEFINED 882386132500                       # Cumulative time (in ticks) in various power states
system.cpu.dtb.walker.walks                         0                       # Table walker walks requested
system.cpu.dtb.walker.requestOrigin_Requested::Data            0                       # Table walker requests started/completed, data/inst
system.cpu.dtb.walker.requestOrigin_Requested::Inst            0                       # Table walker requests started/completed, data/inst
system.cpu.dtb.walker.requestOrigin_Requested::total            0                       # Table walker requests started/completed, data/inst
system.cpu.dtb.walker.requestOrigin_Completed::Data            0                       # Table walker requests started/completed, data/inst
system.cpu.dtb.walker.requestOrigin_Completed::Inst            0                       # Table walker requests started/completed, data/inst
system.cpu.dtb.walker.requestOrigin_Completed::total            0                       # Table walker requests started/completed, data/inst
system.cpu.dtb.walker.requestOrigin::total            0                       # Table walker requests started/completed, data/inst
system.cpu.dtb.walker.power_state.pwrStateResidencyTicks::UNDEFINED 882386132500                       # Cumulative time (in ticks) in various power states
system.cpu.fetch2.intInstructions            45070132                       # Number of integer instructions successfully decoded
system.cpu.fetch2.fpInstructions                    0                       # Number of floating point instructions successfully decoded
system.cpu.fetch2.vecInstructions                   0                       # Number of SIMD instructions successfully decoded
system.cpu.fetch2.loadInstructions            2085986                       # Number of memory load instructions successfully decoded
system.cpu.fetch2.storeInstructions            168930                       # Number of memory store instructions successfully decoded
system.cpu.fetch2.amoInstructions                   0                       # Number of memory atomic instructions successfully decoded
system.cpu.icache.demand_hits::.cpu.inst     42891188                       # number of demand (read+write) hits
system.cpu.icache.demand_hits::total         42891188                       # number of demand (read+write) hits
system.cpu.icache.overall_hits::.cpu.inst     42891188                       # number of overall hits
system.cpu.icache.overall_hits::total        42891188                       # number of overall hits
system.cpu.icache.demand_misses::.cpu.inst          987                       # number of demand (read+write) misses
system.cpu.icache.demand_misses::total            987                       # number of demand (read+write) misses
system.cpu.icache.overall_misses::.cpu.inst          987                       # number of overall misses
system.cpu.icache.overall_misses::total           987                       # number of overall misses
system.cpu.icache.demand_miss_latency::.cpu.inst     74848000                       # number of demand (read+write) miss cycles
system.cpu.icache.demand_miss_latency::total     74848000                       # number of demand (read+write) miss cycles
system.cpu.icache.overall_miss_latency::.cpu.inst     74848000                       # number of overall miss cycles
system.cpu.icache.overall_miss_latency::total     74848000                       # number of overall miss cycles
system.cpu.icache.demand_accesses::.cpu.inst     42892175                       # number of demand (read+write) accesses
system.cpu.icache.demand_accesses::total     42892175                       # number of demand (read+write) accesses
system.cpu.icache.overall_accesses::.cpu.inst     42892175                       # number of overall (read+write) accesses
system.cpu.icache.overall_accesses::total     42892175                       # number of overall (read+write) accesses
system.cpu.icache.demand_miss_rate::.cpu.inst     0.000023                       # miss rate for demand accesses
system.cpu.icache.demand_miss_rate::total     0.000023                       # miss rate for demand accesses
system.cpu.icache.overall_miss_rate::.cpu.inst     0.000023                       # miss rate for overall accesses
system.cpu.icache.overall_miss_rate::total     0.000023                       # miss rate for overall accesses
system.cpu.icache.demand_avg_miss_latency::.cpu.inst 75833.839919                       # average overall miss latency
system.cpu.icache.demand_avg_miss_latency::total 75833.839919                       # average overall miss latency
system.cpu.icache.overall_avg_miss_latency::.cpu.inst 75833.839919                       # average overall miss latency
system.cpu.icache.overall_avg_miss_latency::total 75833.839919                       # average overall miss latency
system.cpu.icache.blocked_cycles::no_mshrs            0                       # number of cycles access was blocked
system.cpu.icache.blocked_cycles::no_targets            0                       # number of cycles access was blocked
system.cpu.icache.blocked::no_mshrs                 0                       # number of cycles access was blocked
system.cpu.icache.blocked::no_targets               0                       # number of cycles access was blocked
system.cpu.icache.avg_blocked_cycles::no_mshrs          nan                       # average number of cycles each access was blocked
system.cpu.icache.avg_blocked_cycles::no_targets          nan                       # average number of cycles each access was blocked
system.cpu.icache.writebacks::.writebacks          366                       # number of writebacks
system.cpu.icache.writebacks::total               366                       # number of writebacks
system.cpu.icache.demand_mshr_misses::.cpu.inst          987                       # number of demand (read+write) MSHR misses
system.cpu.icache.demand_mshr_misses::total          987                       # number of demand (read+write) MSHR misses
system.cpu.icache.overall_mshr_misses::.cpu.inst          987                       # number of overall MSHR misses
system.cpu.icache.overall_mshr_misses::total          987                       # number of overall MSHR misses
system.cpu.icache.demand_mshr_miss_latency::.cpu.inst     73861000                       # number of demand (read+write) MSHR miss cycles
system.cpu.icache.demand_mshr_miss_latency::total     73861000                       # number of demand (read+write) MSHR miss cycles
system.cpu.icache.overall_mshr_miss_latency::.cpu.inst     73861000                       # number of overall MSHR miss cycles
system.cpu.icache.overall_mshr_miss_latency::total     73861000                       # number of overall MSHR miss cycles
system.cpu.icache.demand_mshr_miss_rate::.cpu.inst     0.000023                       # mshr miss rate for demand accesses
system.cpu.icache.demand_mshr_miss_rate::total     0.000023                       # mshr miss rate for demand accesses
system.cpu.icache.overall_mshr_miss_rate::.cpu.inst     0.000023                       # mshr miss rate for overall accesses
system.cpu.icache.overall_mshr_miss_rate::total     0.000023                       # mshr miss rate for overall accesses
system.cpu.icache.demand_avg_mshr_miss_latency::.cpu.inst 74833.839919                       # average overall mshr miss latency
system.cpu.icache.demand_avg_mshr_miss_latency::total 74833.839919                       # average overall mshr miss latency
system.cpu.icache.overall_avg_mshr_miss_latency::.cpu.inst 74833.839919                       # average overall mshr miss latency
system.cpu.icache.overall_avg_mshr_miss_latency::total 74833.839919                       # average overall mshr miss latency
system.cpu.icache.replacements                    366                       # number of replacements
system.cpu.icache.ReadReq_hits::.cpu.inst     42891188                       # number of ReadReq hits
system.cpu.icache.ReadReq_hits::total        42891188                       # number of ReadReq hits
system.cpu.icache.ReadReq_misses::.cpu.inst          987                       # number of ReadReq misses
system.cpu.icache.ReadReq_misses::total           987                       # number of ReadReq misses
system.cpu.icache.ReadReq_miss_latency::.cpu.inst     74848000                       # number of ReadReq miss cycles
system.cpu.icache.ReadReq_miss_latency::total     74848000                       # number of ReadReq miss cycles
system.cpu.icache.ReadReq_accesses::.cpu.inst     42892175                       # number of ReadReq accesses(hits+misses)
system.cpu.icache.ReadReq_accesses::total     42892175                       # number of ReadReq accesses(hits+misses)
system.cpu.icache.ReadReq_miss_rate::.cpu.inst     0.000023                       # miss rate for ReadReq accesses
system.cpu.icache.ReadReq_miss_rate::total     0.000023                       # miss rate for ReadReq accesses
system.cpu.icache.ReadReq_avg_miss_latency::.cpu.inst 75833.839919                       # average ReadReq miss latency
system.cpu.icache.ReadReq_avg_miss_latency::total 75833.839919                       # average ReadReq miss latency
system.cpu.icache.ReadReq_mshr_misses::.cpu.inst          987                       # number of ReadReq MSHR misses
system.cpu.icache.ReadReq_mshr_misses::total          987                       # number of ReadReq MSHR misses
system.cpu.icache.ReadReq_mshr_miss_latency::.cpu.inst     73861000                       # number of ReadReq MSHR miss cycles
system.cpu.icache.ReadReq_mshr_miss_latency::total     73861000                       # number of ReadReq MSHR miss cycles
system.cpu.icache.ReadReq_mshr_miss_rate::.cpu.inst     0.000023                       # mshr miss rate for ReadReq accesses
system.cpu.icache.ReadReq_mshr_miss_rate::total     0.000023                       # mshr miss rate for ReadReq accesses
system.cpu.icache.ReadReq_avg_mshr_miss_latency::.cpu.inst 74833.839919                       # average ReadReq mshr miss latency
system.cpu.icache.ReadReq_avg_mshr_miss_latency::total 74833.839919                       # average ReadReq mshr miss latency
system.cpu.icache.power_state.pwrStateResidencyTicks::UNDEFINED 882386132500                       # Cumulative time (in ticks) in various power states
system.cpu.icache.tags.tagsinuse           538.425587                       # Cycle average of tags in use
system.cpu.icache.tags.total_refs            42892175                       # Total number of references to valid blocks.
system.cpu.icache.tags.sampled_refs               987                       # Sample count of references to valid blocks.
system.cpu.icache.tags.avg_refs          43457.117528                       # Average number of references to valid blocks.
system.cpu.icache.tags.warmup_cycle             87500                       # Cycle when the warmup percentage was hit.
system.cpu.icache.tags.occ_blocks::.cpu.inst   538.425587                       # Average occupied blocks per requestor
system.cpu.icache.tags.occ_percent::.cpu.inst     0.525806                       # Average percentage of cache occupancy
system.cpu.icache.tags.occ_percent::total     0.525806                       # Average percentage of cache occupancy
system.cpu.icache.tags.occ_task_id_blocks::1024          621                       # Occupied blocks per task id
system.cpu.icache.tags.age_task_id_blocks_1024::4          621                       # Occupied blocks per task id
system.cpu.icache.tags.occ_task_id_percent::1024     0.606445                       # Percentage of cache occupancy per task id
system.cpu.icache.tags.tag_accesses          42893162                       # Number of tag accesses
system.cpu.icache.tags.data_accesses         42893162                       # Number of data accesses
system.cpu.icache.tags.power_state.pwrStateResidencyTicks::UNDEFINED 882386132500                       # Cumulative time (in ticks) in various power states
system.cpu.itb.instHits                             0                       # ITB inst hits
system.cpu.itb.instMisses                           0                       # ITB inst misses
system.cpu.itb.readHits                             0                       # DTB read hits
system.cpu.itb.readMisses                           0                       # DTB read misses
system.cpu.itb.writeHits                            0                       # DTB write hits
system.cpu.itb.writeMisses                          0                       # DTB write misses
system.cpu.itb.inserts                              0                       # Number of times an entry is inserted into the TLB
system.cpu.itb.flushTlb                             0                       # Number of times complete TLB was flushed
system.cpu.itb.flushTlbMva                          0                       # Number of times TLB was flushed by MVA
system.cpu.itb.flushTlbMvaAsid                      0                       # Number of times TLB was flushed by MVA & ASID
system.cpu.itb.flushTlbAsid                         0                       # Number of times TLB was flushed by ASID
system.cpu.itb.flushedEntries                       0                       # Number of entries that have been flushed from TLB
system.cpu.itb.alignFaults                          0                       # Number of TLB faults due to alignment restrictions
system.cpu.itb.prefetchFaults                       0                       # Number of TLB faults due to prefetch
system.cpu.itb.domainFaults                         0                       # Number of TLB faults due to domain restrictions
system.cpu.itb.permsFaults                          0                       # Number of TLB faults due to permissions restrictions
system.cpu.itb.readAccesses                         0                       # DTB read accesses
system.cpu.itb.writeAccesses                        0                       # DTB write accesses
system.cpu.itb.instAccesses                         0                       # ITB inst accesses
system.cpu.itb.hits                                 0                       # Total TLB (inst and data) hits
system.cpu.itb.misses                               0                       # Total TLB (inst and data) misses
system.cpu.itb.accesses                             0                       # Total TLB (inst and data) accesses
system.cpu.itb.stage2_mmu.stage2_tlb.instHits            0                       # ITB inst hits
system.cpu.itb.stage2_mmu.stage2_tlb.instMisses            0                       # ITB inst misses
system.cpu.itb.stage2_mmu.stage2_tlb.readHits            0                       # DTB read hits
system.cpu.itb.stage2_mmu.stage2_tlb.readMisses            0                       # DTB read misses
system.cpu.itb.stage2_mmu.stage2_tlb.writeHits            0                       # DTB write hits
system.cpu.itb.stage2_mmu.stage2_tlb.writeMisses            0                       # DTB write misses
system.cpu.itb.stage2_mmu.stage2_tlb.inserts            0                       # Number of times an entry is inserted into the TLB
system.cpu.itb.stage2_mmu.stage2_tlb.flushTlb            0                       # Number of times complete TLB was flushed
system.cpu.itb.stage2_mmu.stage2_tlb.flushTlbMva            0                       # Number of times TLB was flushed by MVA
system.cpu.itb.stage2_mmu.stage2_tlb.flushTlbMvaAsid            0                       # Number of times TLB was flushed by MVA & ASID
system.cpu.itb.stage2_mmu.stage2_tlb.flushTlbAsid            0                       # Number of times TLB was flushed by ASID
system.cpu.itb.stage2_mmu.stage2_tlb.flushedEntries            0                       # Number of entries that have been flushed from TLB
system.cpu.itb.stage2_mmu.stage2_tlb.alignFaults            0                       # Number of TLB faults due to alignment restrictions
system.cpu.itb.stage2_mmu.stage2_tlb.prefetchFaults            0                       # Number of TLB faults due to prefetch
system.cpu.itb.stage2_mmu.stage2_tlb.domainFaults            0                       # Number of TLB faults due to domain restrictions
system.cpu.itb.stage2_mmu.stage2_tlb.permsFaults            0                       # Number of TLB faults due to permissions restrictions
system.cpu.itb.stage2_mmu.stage2_tlb.readAccesses            0                       # DTB read accesses
system.cpu.itb.stage2_mmu.stage2_tlb.writeAccesses            0                       # DTB write accesses
system.cpu.itb.stage2_mmu.stage2_tlb.instAccesses            0                       # ITB inst accesses
system.cpu.itb.stage2_mmu.stage2_tlb.hits            0                       # Total TLB (inst and data) hits
system.cpu.itb.stage2_mmu.stage2_tlb.misses            0                       # Total TLB (inst and data) misses
system.cpu.itb.stage2_mmu.stage2_tlb.accesses            0                       # Total TLB (inst and data) accesses
system.cpu.itb.stage2_mmu.stage2_tlb.walker.walks            0                       # Table walker walks requested
system.cpu.itb.stage2_mmu.stage2_tlb.walker.requestOrigin_Requested::Data            0                       # Table walker requests started/completed, data/inst
system.cpu.itb.stage2_mmu.stage2_tlb.walker.requestOrigin_Requested::Inst            0                       # Table walker requests started/completed, data/inst
system.cpu.itb.stage2_mmu.stage2_tlb.walker.requestOrigin_Requested::total            0                       # Table walker requests started/completed, data/inst
system.cpu.itb.stage2_mmu.stage2_tlb.walker.requestOrigin_Completed::Data            0                       # Table walker requests started/completed, data/inst
system.cpu.itb.stage2_mmu.stage2_tlb.walker.requestOrigin_Completed::Inst            0                       # Table walker requests started/completed, data/inst
system.cpu.itb.stage2_mmu.stage2_tlb.walker.requestOrigin_Completed::total            0                       # Table walker requests started/completed, data/inst
system.cpu.itb.stage2_mmu.stage2_tlb.walker.requestOrigin::total            0                       # Table walker requests started/completed, data/inst
system.cpu.itb.stage2_mmu.stage2_tlb.walker.power_state.pwrStateResidencyTicks::UNDEFINED 882386132500                       # Cumulative time (in ticks) in various power states
system.cpu.itb.walker.walks                         0                       # Table walker walks requested
system.cpu.itb.walker.requestOrigin_Requested::Data            0                       # Table walker requests started/completed, data/inst
system.cpu.itb.walker.requestOrigin_Requested::Inst            0                       # Table walker requests started/completed, data/inst
system.cpu.itb.walker.requestOrigin_Requested::total            0                       # Table walker requests started/completed, data/inst
system.cpu.itb.walker.requestOrigin_Completed::Data            0                       # Table walker requests started/completed, data/inst
system.cpu.itb.walker.requestOrigin_Completed::Inst            0                       # Table walker requests started/completed, data/inst
system.cpu.itb.walker.requestOrigin_Completed::total            0                       # Table walker requests started/completed, data/inst
system.cpu.itb.walker.requestOrigin::total            0                       # Table walker requests started/completed, data/inst
system.cpu.itb.walker.power_state.pwrStateResidencyTicks::UNDEFINED 882386132500                       # Cumulative time (in ticks) in various power states
system.cpu.power_state.pwrStateResidencyTicks::ON 882386132500                       # Cumulative time (in ticks) in various power states
system.cpu.thread0.numInsts                 100000000                       # Number of Instructions committed
system.cpu.thread0.numOps                   184218810                       # Number of Ops committed
system.cpu.thread0.numMemRefs                       0                       # Number of Memory References
system.cpu_clk_domain.clock                       500                       # Clock period in ticks
system.cpu_voltage_domain.voltage                   1                       # Voltage in Volts
system.l2.demand_hits::.cpu.inst                   75                       # number of demand (read+write) hits
system.l2.demand_hits::.cpu.data                 1547                       # number of demand (read+write) hits
system.l2.demand_hits::total                     1622                       # number of demand (read+write) hits
system.l2.overall_hits::.cpu.inst                  75                       # number of overall hits
system.l2.overall_hits::.cpu.data                1547                       # number of overall hits
system.l2.overall_hits::total                    1622                       # number of overall hits
system.l2.demand_misses::.cpu.inst                912                       # number of demand (read+write) misses
system.l2.demand_misses::.cpu.data           10526270                       # number of demand (read+write) misses
system.l2.demand_misses::total               10527182                       # number of demand (read+write) misses
system.l2.overall_misses::.cpu.inst               912                       # number of overall misses
system.l2.overall_misses::.cpu.data          10526270                       # number of overall misses
system.l2.overall_misses::total              10527182                       # number of overall misses
system.l2.demand_miss_latency::.cpu.inst     71562500                       # number of demand (read+write) miss cycles
system.l2.demand_miss_latency::.cpu.data 811143361500                       # number of demand (read+write) miss cycles
system.l2.demand_miss_latency::total     811214924000                       # number of demand (read+write) miss cycles
system.l2.overall_miss_latency::.cpu.inst     71562500                       # number of overall miss cycles
system.l2.overall_miss_latency::.cpu.data 811143361500                       # number of overall miss cycles
system.l2.overall_miss_latency::total    811214924000                       # number of overall miss cycles
system.l2.demand_accesses::.cpu.inst              987                       # number of demand (read+write) accesses
system.l2.demand_accesses::.cpu.data         10527817                       # number of demand (read+write) accesses
system.l2.demand_accesses::total             10528804                       # number of demand (read+write) accesses
system.l2.overall_accesses::.cpu.inst             987                       # number of overall (read+write) accesses
system.l2.overall_accesses::.cpu.data        10527817                       # number of overall (read+write) accesses
system.l2.overall_accesses::total            10528804                       # number of overall (read+write) accesses
system.l2.demand_miss_rate::.cpu.inst        0.924012                       # miss rate for demand accesses
system.l2.demand_miss_rate::.cpu.data        0.999853                       # miss rate for demand accesses
system.l2.demand_miss_rate::total            0.999846                       # miss rate for demand accesses
system.l2.overall_miss_rate::.cpu.inst       0.924012                       # miss rate for overall accesses
system.l2.overall_miss_rate::.cpu.data       0.999853                       # miss rate for overall accesses
system.l2.overall_miss_rate::total           0.999846                       # miss rate for overall accesses
system.l2.demand_avg_miss_latency::.cpu.inst 78467.653509                       # average overall miss latency
system.l2.demand_avg_miss_latency::.cpu.data 77058.954549                       # average overall miss latency
system.l2.demand_avg_miss_latency::total 77059.076589                       # average overall miss latency
system.l2.overall_avg_miss_latency::.cpu.inst 78467.653509                       # average overall miss latency
system.l2.overall_avg_miss_latency::.cpu.data 77058.954549                       # average overall miss latency
system.l2.overall_avg_miss_latency::total 77059.076589                       # average overall miss latency
system.l2.blocked_cycles::no_mshrs                  0                       # number of cycles access was blocked
system.l2.blocked_cycles::no_targets                0                       # number of cycles access was blocked
system.l2.blocked::no_mshrs                         0                       # number of cycles access was blocked
system.l2.blocked::no_targets                       0                       # number of cycles access was blocked
system.l2.avg_blocked_cycles::no_mshrs            nan                       # average number of cycles each access was blocked
system.l2.avg_blocked_cycles::no_targets          nan                       # average number of cycles each access was blocked
system.l2.writebacks::.writebacks            10460351                       # number of writebacks
system.l2.writebacks::total                  10460351                       # number of writebacks
system.l2.demand_mshr_hits::.cpu.inst               1                       # number of demand (read+write) MSHR hits
system.l2.demand_mshr_hits::.cpu.data               4                       # number of demand (read+write) MSHR hits
system.l2.demand_mshr_hits::total                   5                       # number of demand (read+write) MSHR hits
system.l2.overall_mshr_hits::.cpu.inst              1                       # number of overall MSHR hits
system.l2.overall_mshr_hits::.cpu.data              4                       # number of overall MSHR hits
system.l2.overall_mshr_hits::total                  5                       # number of overall MSHR hits
system.l2.demand_mshr_misses::.cpu.inst           911                       # number of demand (read+write) MSHR misses
system.l2.demand_mshr_misses::.cpu.data      10526266                       # number of demand (read+write) MSHR misses
system.l2.demand_mshr_misses::total          10527177                       # number of demand (read+write) MSHR misses
system.l2.overall_mshr_misses::.cpu.inst          911                       # number of overall MSHR misses
system.l2.overall_mshr_misses::.cpu.data     10526266                       # number of overall MSHR misses
system.l2.overall_mshr_misses::total         10527177                       # number of overall MSHR misses
system.l2.demand_mshr_miss_latency::.cpu.inst     62394000                       # number of demand (read+write) MSHR miss cycles
system.l2.demand_mshr_miss_latency::.cpu.data 705880477000                       # number of demand (read+write) MSHR miss cycles
system.l2.demand_mshr_miss_latency::total 705942871000                       # number of demand (read+write) MSHR miss cycles
system.l2.overall_mshr_miss_latency::.cpu.inst     62394000                       # number of overall MSHR miss cycles
system.l2.overall_mshr_miss_latency::.cpu.data 705880477000                       # number of overall MSHR miss cycles
system.l2.overall_mshr_miss_latency::total 705942871000                       # number of overall MSHR miss cycles
system.l2.demand_mshr_miss_rate::.cpu.inst     0.922999                       # mshr miss rate for demand accesses
system.l2.demand_mshr_miss_rate::.cpu.data     0.999853                       # mshr miss rate for demand accesses
system.l2.demand_mshr_miss_rate::total       0.999845                       # mshr miss rate for demand accesses
system.l2.overall_mshr_miss_rate::.cpu.inst     0.922999                       # mshr miss rate for overall accesses
system.l2.overall_mshr_miss_rate::.cpu.data     0.999853                       # mshr miss rate for overall accesses
system.l2.overall_mshr_miss_rate::total      0.999845                       # mshr miss rate for overall accesses
system.l2.demand_avg_mshr_miss_latency::.cpu.inst 68489.571899                       # average overall mshr miss latency
system.l2.demand_avg_mshr_miss_latency::.cpu.data 67058.962504                       # average overall mshr miss latency
system.l2.demand_avg_mshr_miss_latency::total 67059.086306                       # average overall mshr miss latency
system.l2.overall_avg_mshr_miss_latency::.cpu.inst 68489.571899                       # average overall mshr miss latency
system.l2.overall_avg_mshr_miss_latency::.cpu.data 67058.962504                       # average overall mshr miss latency
system.l2.overall_avg_mshr_miss_latency::total 67059.086306                       # average overall mshr miss latency
system.l2.replacements                       10461757                       # number of replacements
system.l2.WritebackDirty_hits::.writebacks     10524668                       # number of WritebackDirty hits
system.l2.WritebackDirty_hits::total         10524668                       # number of WritebackDirty hits
system.l2.WritebackDirty_accesses::.writebacks     10524668                       # number of WritebackDirty accesses(hits+misses)
system.l2.WritebackDirty_accesses::total     10524668                       # number of WritebackDirty accesses(hits+misses)
system.l2.WritebackClean_hits::.writebacks          359                       # number of WritebackClean hits
system.l2.WritebackClean_hits::total              359                       # number of WritebackClean hits
system.l2.WritebackClean_accesses::.writebacks          359                       # number of WritebackClean accesses(hits+misses)
system.l2.WritebackClean_accesses::total          359                       # number of WritebackClean accesses(hits+misses)
system.l2.ReadExReq_hits::.cpu.data               720                       # number of ReadExReq hits
system.l2.ReadExReq_hits::total                   720                       # number of ReadExReq hits
system.l2.ReadExReq_misses::.cpu.data        10525851                       # number of ReadExReq misses
system.l2.ReadExReq_misses::total            10525851                       # number of ReadExReq misses
system.l2.ReadExReq_miss_latency::.cpu.data 811107597500                       # number of ReadExReq miss cycles
system.l2.ReadExReq_miss_latency::total  811107597500                       # number of ReadExReq miss cycles
system.l2.ReadExReq_accesses::.cpu.data      10526571                       # number of ReadExReq accesses(hits+misses)
system.l2.ReadExReq_accesses::total          10526571                       # number of ReadExReq accesses(hits+misses)
system.l2.ReadExReq_miss_rate::.cpu.data     0.999932                       # miss rate for ReadExReq accesses
system.l2.ReadExReq_miss_rate::total         0.999932                       # miss rate for ReadExReq accesses
system.l2.ReadExReq_avg_miss_latency::.cpu.data 77058.624286                       # average ReadExReq miss latency
system.l2.ReadExReq_avg_miss_latency::total 77058.624286                       # average ReadExReq miss latency
system.l2.ReadExReq_mshr_misses::.cpu.data     10525851                       # number of ReadExReq MSHR misses
system.l2.ReadExReq_mshr_misses::total       10525851                       # number of ReadExReq MSHR misses
system.l2.ReadExReq_mshr_miss_latency::.cpu.data 705849097500                       # number of ReadExReq MSHR miss cycles
system.l2.ReadExReq_mshr_miss_latency::total 705849097500                       # number of ReadExReq MSHR miss cycles
system.l2.ReadExReq_mshr_miss_rate::.cpu.data     0.999932                       # mshr miss rate for ReadExReq accesses
system.l2.ReadExReq_mshr_miss_rate::total     0.999932                       # mshr miss rate for ReadExReq accesses
system.l2.ReadExReq_avg_mshr_miss_latency::.cpu.data 67058.625236                       # average ReadExReq mshr miss latency
system.l2.ReadExReq_avg_mshr_miss_latency::total 67058.625236                       # average ReadExReq mshr miss latency
system.l2.ReadCleanReq_hits::.cpu.inst             75                       # number of ReadCleanReq hits
system.l2.ReadCleanReq_hits::total                 75                       # number of ReadCleanReq hits
system.l2.ReadCleanReq_misses::.cpu.inst          912                       # number of ReadCleanReq misses
system.l2.ReadCleanReq_misses::total              912                       # number of ReadCleanReq misses
system.l2.ReadCleanReq_miss_latency::.cpu.inst     71562500                       # number of ReadCleanReq miss cycles
system.l2.ReadCleanReq_miss_latency::total     71562500                       # number of ReadCleanReq miss cycles
system.l2.ReadCleanReq_accesses::.cpu.inst          987                       # number of ReadCleanReq accesses(hits+misses)
system.l2.ReadCleanReq_accesses::total            987                       # number of ReadCleanReq accesses(hits+misses)
system.l2.ReadCleanReq_miss_rate::.cpu.inst     0.924012                       # miss rate for ReadCleanReq accesses
system.l2.ReadCleanReq_miss_rate::total      0.924012                       # miss rate for ReadCleanReq accesses
system.l2.ReadCleanReq_avg_miss_latency::.cpu.inst 78467.653509                       # average ReadCleanReq miss latency
system.l2.ReadCleanReq_avg_miss_latency::total 78467.653509                       # average ReadCleanReq miss latency
system.l2.ReadCleanReq_mshr_hits::.cpu.inst            1                       # number of ReadCleanReq MSHR hits
system.l2.ReadCleanReq_mshr_hits::total             1                       # number of ReadCleanReq MSHR hits
system.l2.ReadCleanReq_mshr_misses::.cpu.inst          911                       # number of ReadCleanReq MSHR misses
system.l2.ReadCleanReq_mshr_misses::total          911                       # number of ReadCleanReq MSHR misses
system.l2.ReadCleanReq_mshr_miss_latency::.cpu.inst     62394000                       # number of ReadCleanReq MSHR miss cycles
system.l2.ReadCleanReq_mshr_miss_latency::total     62394000                       # number of ReadCleanReq MSHR miss cycles
system.l2.ReadCleanReq_mshr_miss_rate::.cpu.inst     0.922999                       # mshr miss rate for ReadCleanReq accesses
system.l2.ReadCleanReq_mshr_miss_rate::total     0.922999                       # mshr miss rate for ReadCleanReq accesses
system.l2.ReadCleanReq_avg_mshr_miss_latency::.cpu.inst 68489.571899                       # average ReadCleanReq mshr miss latency
system.l2.ReadCleanReq_avg_mshr_miss_latency::total 68489.571899                       # average ReadCleanReq mshr miss latency
system.l2.ReadSharedReq_hits::.cpu.data           827                       # number of ReadSharedReq hits
system.l2.ReadSharedReq_hits::total               827                       # number of ReadSharedReq hits
system.l2.ReadSharedReq_misses::.cpu.data          419                       # number of ReadSharedReq misses
system.l2.ReadSharedReq_misses::total             419                       # number of ReadSharedReq misses
system.l2.ReadSharedReq_miss_latency::.cpu.data     35764000                       # number of ReadSharedReq miss cycles
system.l2.ReadSharedReq_miss_latency::total     35764000                       # number of ReadSharedReq miss cycles
system.l2.ReadSharedReq_accesses::.cpu.data         1246                       # number of ReadSharedReq accesses(hits+misses)
system.l2.ReadSharedReq_accesses::total          1246                       # number of ReadSharedReq accesses(hits+misses)
system.l2.ReadSharedReq_miss_rate::.cpu.data     0.336276                       # miss rate for ReadSharedReq accesses
system.l2.ReadSharedReq_miss_rate::total     0.336276                       # miss rate for ReadSharedReq accesses
system.l2.ReadSharedReq_avg_miss_latency::.cpu.data 85355.608592                       # average ReadSharedReq miss latency
system.l2.ReadSharedReq_avg_miss_latency::total 85355.608592                       # average ReadSharedReq miss latency
system.l2.ReadSharedReq_mshr_hits::.cpu.data            4                       # number of ReadSharedReq MSHR hits
system.l2.ReadSharedReq_mshr_hits::total            4                       # number of ReadSharedReq MSHR hits
system.l2.ReadSharedReq_mshr_misses::.cpu.data          415                       # number of ReadSharedReq MSHR misses
system.l2.ReadSharedReq_mshr_misses::total          415                       # number of ReadSharedReq MSHR misses
system.l2.ReadSharedReq_mshr_miss_latency::.cpu.data     31379500                       # number of ReadSharedReq MSHR miss cycles
system.l2.ReadSharedReq_mshr_miss_latency::total     31379500                       # number of ReadSharedReq MSHR miss cycles
system.l2.ReadSharedReq_mshr_miss_rate::.cpu.data     0.333066                       # mshr miss rate for ReadSharedReq accesses
system.l2.ReadSharedReq_mshr_miss_rate::total     0.333066                       # mshr miss rate for ReadSharedReq accesses
system.l2.ReadSharedReq_avg_mshr_miss_latency::.cpu.data 75613.253012                       # average ReadSharedReq mshr miss latency
system.l2.ReadSharedReq_avg_mshr_miss_latency::total 75613.253012                       # average ReadSharedReq mshr miss latency
system.l2.InvalidateReq_hits::.cpu.data             1                       # number of InvalidateReq hits
system.l2.InvalidateReq_hits::total                 1                       # number of InvalidateReq hits
system.l2.InvalidateReq_accesses::.cpu.data            1                       # number of InvalidateReq accesses(hits+misses)
system.l2.InvalidateReq_accesses::total             1                       # number of InvalidateReq accesses(hits+misses)
system.l2.power_state.pwrStateResidencyTicks::UNDEFINED 882386132500                       # Cumulative time (in ticks) in various power states
system.l2.tags.tagsinuse                 65159.296411                       # Cycle average of tags in use
system.l2.tags.total_refs                    21054810                       # Total number of references to valid blocks.
system.l2.tags.sampled_refs                  10527294                       # Sample count of references to valid blocks.
system.l2.tags.avg_refs                      2.000021                       # Average number of references to valid blocks.
system.l2.tags.warmup_cycle                     77000                       # Cycle when the warmup percentage was hit.
system.l2.tags.occ_blocks::.writebacks       0.688414                       # Average occupied blocks per requestor
system.l2.tags.occ_blocks::.cpu.inst         6.769585                       # Average occupied blocks per requestor
system.l2.tags.occ_blocks::.cpu.data     65151.838411                       # Average occupied blocks per requestor
system.l2.tags.occ_percent::.writebacks      0.000011                       # Average percentage of cache occupancy
system.l2.tags.occ_percent::.cpu.inst        0.000103                       # Average percentage of cache occupancy
system.l2.tags.occ_percent::.cpu.data        0.994138                       # Average percentage of cache occupancy
system.l2.tags.occ_percent::total            0.994252                       # Average percentage of cache occupancy
system.l2.tags.occ_task_id_blocks::1024         65536                       # Occupied blocks per task id
system.l2.tags.age_task_id_blocks_1024::0          117                       # Occupied blocks per task id
system.l2.tags.age_task_id_blocks_1024::1         1078                       # Occupied blocks per task id
system.l2.tags.age_task_id_blocks_1024::2        10758                       # Occupied blocks per task id
system.l2.tags.age_task_id_blocks_1024::3        53583                       # Occupied blocks per task id
system.l2.tags.occ_task_id_percent::1024            1                       # Percentage of cache occupancy per task id
system.l2.tags.tag_accesses                 178965822                       # Number of tag accesses
system.l2.tags.data_accesses                178965822                       # Number of data accesses
system.l2.tags.power_state.pwrStateResidencyTicks::UNDEFINED 882386132500                       # Cumulative time (in ticks) in various power states
system.mem_ctrls.avgPriority_.writebacks::samples   5231888.00                       # Average QoS priority value for accepted requests
system.mem_ctrls.avgPriority_.cpu.inst::samples       911.00                       # Average QoS priority value for accepted requests
system.mem_ctrls.avgPriority_.cpu.data::samples  10526265.00                       # Average QoS priority value for accepted requests
system.mem_ctrls.priorityMinLatency      0.000000018750                       # per QoS priority minimum request to response latency (s)
system.mem_ctrls.priorityMaxLatency      0.000873916500                       # per QoS priority maximum request to response latency (s)
system.mem_ctrls.numReadWriteTurnArounds       326987                       # Number of turnarounds from READ to WRITE
system.mem_ctrls.numWriteReadTurnArounds       326987                       # Number of turnarounds from WRITE to READ
system.mem_ctrls.numStayReadState            31398126                       # Number of times bus staying in READ state
system.mem_ctrls.numStayWriteState            4920614                       # Number of times bus staying in WRITE state
system.mem_ctrls.readReqs                    10527176                       # Number of read requests accepted
system.mem_ctrls.writeReqs                   10460351                       # Number of write requests accepted
system.mem_ctrls.readBursts                  10527176                       # Number of controller read bursts, including those serviced by the write queue
system.mem_ctrls.writeBursts                 10460351                       # Number of controller write bursts, including those merged in the write queue
system.mem_ctrls.servicedByWrQ                      0                       # Number of controller read bursts serviced by the write queue
system.mem_ctrls.mergedWrBursts               5228463                       # Number of controller write bursts merged with an existing one
system.mem_ctrls.neitherReadNorWriteReqs            0                       # Number of requests that are neither read nor write
system.mem_ctrls.avgRdQLen                       1.00                       # Average read queue length when enqueuing
system.mem_ctrls.avgWrQLen                      25.67                       # Average write queue length when enqueuing
system.mem_ctrls.numRdRetry                         0                       # Number of times read queue was full causing retry
system.mem_ctrls.numWrRetry                         0                       # Number of times write queue was full causing retry
system.mem_ctrls.readPktSize::0                     0                       # Read request sizes (log2)
system.mem_ctrls.readPktSize::1                     0                       # Read request sizes (log2)
system.mem_ctrls.readPktSize::2                     0                       # Read request sizes (log2)
[...]
system.mem_ctrls.dram.bw_total::.writebacks    379347793                       # Total bandwidth to/from this memory (bytes/s)
system.mem_ctrls.dram.bw_total::.cpu.inst        33038                       # Total bandwidth to/from this memory (bytes/s)
system.mem_ctrls.dram.bw_total::.cpu.data    381738184                       # Total bandwidth to/from this memory (bytes/s)
system.mem_ctrls.dram.bw_total::total       761119015                       # Total bandwidth to/from this memory (bytes/s)
system.mem_ctrls.dram.readBursts             10527176                       # Number of DRAM read bursts
system.mem_ctrls.dram.writeBursts             5231870                       # Number of DRAM write bursts
system.mem_ctrls.dram.perBankRdBursts::0       657806                       # Per bank write bursts
system.mem_ctrls.dram.perBankRdBursts::1       658123                       # Per bank write bursts
system.mem_ctrls.dram.perBankRdBursts::2       658054                       # Per bank write bursts
system.mem_ctrls.dram.perBankRdBursts::3       658125                       # Per bank write bursts
system.mem_ctrls.dram.perBankRdBursts::4       657952                       # Per bank write bursts
system.mem_ctrls.dram.perBankRdBursts::5       658115                       # Per bank write bursts
system.mem_ctrls.dram.perBankRdBursts::6       658129                       # Per bank write bursts
system.mem_ctrls.dram.perBankRdBursts::7       658023                       # Per bank write bursts
system.mem_ctrls.dram.perBankRdBursts::8       657774                       # Per bank write bursts
system.mem_ctrls.dram.perBankRdBursts::9       657712                       # Per bank write bursts
system.mem_ctrls.dram.perBankRdBursts::10       657770                       # Per bank write bursts
system.mem_ctrls.dram.perBankRdBursts::11       657812                       # Per bank write bursts
system.mem_ctrls.dram.perBankRdBursts::12       657984                       # Per bank write bursts
system.mem_ctrls.dram.perBankRdBursts::13       658003                       # Per bank write bursts
system.mem_ctrls.dram.perBankRdBursts::14       657937                       # Per bank write bursts
system.mem_ctrls.dram.perBankRdBursts::15       657857                       # Per bank write bursts
system.mem_ctrls.dram.perBankWrBursts::0       326854                       # Per bank write bursts
system.mem_ctrls.dram.perBankWrBursts::1       327164                       # Per bank write bursts
system.mem_ctrls.dram.perBankWrBursts::2       327106                       # Per bank write bursts
system.mem_ctrls.dram.perBankWrBursts::3       327109                       # Per bank write bursts
system.mem_ctrls.dram.perBankWrBursts::4       327002                       # Per bank write bursts
system.mem_ctrls.dram.perBankWrBursts::5       327018                       # Per bank write bursts
system.mem_ctrls.dram.perBankWrBursts::6       327044                       # Per bank write bursts
system.mem_ctrls.dram.perBankWrBursts::7       327008                       # Per bank write bursts
system.mem_ctrls.dram.perBankWrBursts::8       326919                       # Per bank write bursts
system.mem_ctrls.dram.perBankWrBursts::9       326801                       # Per bank write bursts
system.mem_ctrls.dram.perBankWrBursts::10       326847                       # Per bank write bursts
system.mem_ctrls.dram.perBankWrBursts::11       326885                       # Per bank write bursts
system.mem_ctrls.dram.perBankWrBursts::12       327133                       # Per bank write bursts
system.mem_ctrls.dram.perBankWrBursts::13       327040                       # Per bank write bursts
system.mem_ctrls.dram.perBankWrBursts::14       326984                       # Per bank write bursts
system.mem_ctrls.dram.perBankWrBursts::15       326956                       # Per bank write bursts
system.mem_ctrls.dram.totQLat             79408868750                       # Total ticks spent queuing
system.mem_ctrls.dram.totBusLat           52635880000                       # Total ticks spent in databus transfers
system.mem_ctrls.dram.totMemAccLat       276793418750                       # Total ticks spent from burst creation until serviced by the DRAM
system.mem_ctrls.dram.avgQLat                 7543.23                       # Average queueing delay per DRAM burst
system.mem_ctrls.dram.avgBusLat               5000.00                       # Average bus latency per DRAM burst
system.mem_ctrls.dram.avgMemAccLat           26293.23                       # Average memory access latency per DRAM burst
system.mem_ctrls.dram.readRowHits             9731044                       # Number of row buffer hits during reads
system.mem_ctrls.dram.writeRowHits            4856395                       # Number of row buffer hits during writes
system.mem_ctrls.dram.readRowHitRate            92.44                       # Row buffer hit rate for reads
system.mem_ctrls.dram.writeRowHitRate           92.82                       # Row buffer hit rate for writes
system.mem_ctrls.dram.bytesPerActivate::samples      1171606                       # Bytes accessed per row activation
system.mem_ctrls.dram.bytesPerActivate::mean   860.851474                       # Bytes accessed per row activation
system.mem_ctrls.dram.bytesPerActivate::gmean   761.272929                       # Bytes accessed per row activation
system.mem_ctrls.dram.bytesPerActivate::stdev   288.508875                       # Bytes accessed per row activation
system.mem_ctrls.dram.bytesPerActivate::0-127        28970      2.47%      2.47% # Bytes accessed per row activation
system.mem_ctrls.dram.bytesPerActivate::128-255        54164      4.62%      7.10% # Bytes accessed per row activation
system.mem_ctrls.dram.bytesPerActivate::256-383        45801      3.91%     11.00% # Bytes accessed per row activation
system.mem_ctrls.dram.bytesPerActivate::384-511        52514      4.48%     15.49% # Bytes accessed per row activation
system.mem_ctrls.dram.bytesPerActivate::512-639        49972      4.27%     19.75% # Bytes accessed per row activation
system.mem_ctrls.dram.bytesPerActivate::640-767        34109      2.91%     22.66% # Bytes accessed per row activation
system.mem_ctrls.dram.bytesPerActivate::768-895        58510      4.99%     27.66% # Bytes accessed per row activation
system.mem_ctrls.dram.bytesPerActivate::896-1023        38341      3.27%     30.93% # Bytes accessed per row activation
system.mem_ctrls.dram.bytesPerActivate::1024-1151       809225     69.07%    100.00% # Bytes accessed per row activation
system.mem_ctrls.dram.bytesPerActivate::total      1171606                       # Bytes accessed per row activation
system.mem_ctrls.dram.bytesRead             673739264                       # Total number of bytes read from DRAM
system.mem_ctrls.dram.bytesWritten          334839680                       # Total number of bytes written to DRAM
system.mem_ctrls.dram.avgRdBW              763.542444                       # Average DRAM read bandwidth in MiBytes/s
system.mem_ctrls.dram.avgWrBW              379.470696                       # Average DRAM write bandwidth in MiBytes/s
system.mem_ctrls.dram.peakBW                 12800.00                       # Theoretical peak bandwidth in MiByte/s
system.mem_ctrls.dram.busUtil                    8.93                       # Data bus utilization in percentage
system.mem_ctrls.dram.busUtilRead                5.97                       # Data bus utilization in percentage for reads
system.mem_ctrls.dram.busUtilWrite               2.96                       # Data bus utilization in percentage for writes
system.mem_ctrls.dram.pageHitRate               92.57                       # Row buffer hit rate, read and write combined
system.mem_ctrls.dram.power_state.pwrStateResidencyTicks::UNDEFINED 882386132500                       # Cumulative time (in ticks) in various power states
system.mem_ctrls.dram.rank0.actEnergy      4182719100                       # Energy for activate commands per rank (pJ)
system.mem_ctrls.dram.rank0.preEnergy      2223164130                       # Energy for precharge commands per rank (pJ)
system.mem_ctrls.dram.rank0.readEnergy    37587294780                       # Energy for read commands per rank (pJ)
system.mem_ctrls.dram.rank0.writeEnergy   13657112100                       # Energy for write commands per rank (pJ)
system.mem_ctrls.dram.rank0.refreshEnergy 69654692640.000015                       # Energy for refresh commands per rank (pJ)
system.mem_ctrls.dram.rank0.actBackEnergy 205194074850                       # Energy for active background per rank (pJ)
system.mem_ctrls.dram.rank0.preBackEnergy 166041264480                       # Energy for precharge background per rank (pJ)
system.mem_ctrls.dram.rank0.actPowerDownEnergy            0                       # Energy for active power-down per rank (pJ)
system.mem_ctrls.dram.rank0.prePowerDownEnergy            0                       # Energy for precharge power-down per rank (pJ)
system.mem_ctrls.dram.rank0.selfRefreshEnergy            0                       # Energy for self refresh per rank (pJ)
system.mem_ctrls.dram.rank0.totalEnergy  498540322080                       # Total energy per rank (pJ)
system.mem_ctrls.dram.rank0.averagePower   564.991112                       # Core power per rank (mW)
system.mem_ctrls.dram.rank0.totalIdleTime            0                       # Total Idle time Per DRAM Rank
system.mem_ctrls.dram.rank0.pwrStateTime::IDLE 424966080750                       # Time in different power states
system.mem_ctrls.dram.rank0.pwrStateTime::REF  29464760000                       # Time in different power states
system.mem_ctrls.dram.rank0.pwrStateTime::SREF            0                       # Time in different power states
system.mem_ctrls.dram.rank0.pwrStateTime::PRE_PDN            0                       # Time in different power states
system.mem_ctrls.dram.rank0.pwrStateTime::ACT 427955291750                       # Time in different power states
system.mem_ctrls.dram.rank0.pwrStateTime::ACT_PDN            0                       # Time in different power states
system.mem_ctrls.dram.rank1.actEnergy      4182554880                       # Energy for activate commands per rank (pJ)
system.mem_ctrls.dram.rank1.preEnergy      2223080640                       # Energy for precharge commands per rank (pJ)
system.mem_ctrls.dram.rank1.readEnergy    37576741860                       # Energy for read commands per rank (pJ)
system.mem_ctrls.dram.rank1.writeEnergy   13653249300                       # Energy for write commands per rank (pJ)
system.mem_ctrls.dram.rank1.refreshEnergy 69654692640.000015                       # Energy for refresh commands per rank (pJ)
system.mem_ctrls.dram.rank1.actBackEnergy 205140126630                       # Energy for active background per rank (pJ)
system.mem_ctrls.dram.rank1.preBackEnergy 166086694560                       # Energy for precharge background per rank (pJ)
system.mem_ctrls.dram.rank1.actPowerDownEnergy            0                       # Energy for active power-down per rank (pJ)
system.mem_ctrls.dram.rank1.prePowerDownEnergy            0                       # Energy for precharge power-down per rank (pJ)
system.mem_ctrls.dram.rank1.selfRefreshEnergy            0                       # Energy for self refresh per rank (pJ)
system.mem_ctrls.dram.rank1.totalEnergy  498517140510                       # Total energy per rank (pJ)
system.mem_ctrls.dram.rank1.averagePower   564.964840                       # Core power per rank (mW)
system.mem_ctrls.dram.rank1.totalIdleTime            0                       # Total Idle time Per DRAM Rank
system.mem_ctrls.dram.rank1.pwrStateTime::IDLE 425083752750                       # Time in different power states
system.mem_ctrls.dram.rank1.pwrStateTime::REF  29464760000                       # Time in different power states
system.mem_ctrls.dram.rank1.pwrStateTime::SREF            0                       # Time in different power states
system.mem_ctrls.dram.rank1.pwrStateTime::PRE_PDN            0                       # Time in different power states
system.mem_ctrls.dram.rank1.pwrStateTime::ACT 427837619750                       # Time in different power states
system.mem_ctrls.dram.rank1.pwrStateTime::ACT_PDN            0                       # Time in different power states
system.mem_ctrls.power_state.pwrStateResidencyTicks::UNDEFINED 882386132500                       # Cumulative time (in ticks) in various power states
system.membus.trans_dist::ReadResp               1326                       # Transaction distribution
system.membus.trans_dist::WritebackDirty     10460351                       # Transaction distribution
system.membus.trans_dist::CleanEvict              659                       # Transaction distribution
system.membus.trans_dist::ReadExReq          10525850                       # Transaction distribution
system.membus.trans_dist::ReadExResp         10525850                       # Transaction distribution
system.membus.trans_dist::ReadSharedReq          1326                       # Transaction distribution
system.membus.pkt_count_system.l2.mem_side_port::system.mem_ctrls.port     31515362                       # Packet count per connected requestor and responder (bytes)
system.membus.pkt_count::total               31515362                       # Packet count per connected requestor and responder (bytes)
system.membus.pkt_size_system.l2.mem_side_port::system.mem_ctrls.port    671600864                       # Cumulative packet size per connected requestor and responder (bytes)
system.membus.pkt_size::total               671600864                       # Cumulative packet size per connected requestor and responder (bytes)
system.membus.snoops                                0                       # Total snoops (count)
system.membus.snoopTraffic                          0                       # Total snoop traffic (bytes)
system.membus.snoop_fanout::samples          10527176                       # Request fanout histogram
system.membus.snoop_fanout::mean                    0                       # Request fanout histogram
system.membus.snoop_fanout::stdev                   0                       # Request fanout histogram
system.membus.snoop_fanout::underflows              0      0.00%      0.00% # Request fanout histogram
system.membus.snoop_fanout::0                10527176    100.00%    100.00% # Request fanout histogram
system.membus.snoop_fanout::1                       0      0.00%    100.00% # Request fanout histogram
system.membus.snoop_fanout::overflows               0      0.00%    100.00% # Request fanout histogram
system.membus.snoop_fanout::min_value               0                       # Request fanout histogram
system.membus.snoop_fanout::max_value               0                       # Request fanout histogram
system.membus.snoop_fanout::total            10527176                       # Request fanout histogram
system.membus.power_state.pwrStateResidencyTicks::UNDEFINED 882386132500                       # Cumulative time (in ticks) in various power states
system.membus.reqLayer0.occupancy         41932853500                       # Layer occupancy (ticks)
system.membus.reqLayer0.utilization               4.8                       # Layer utilization (%)
system.membus.respLayer1.occupancy        34356325250                       # Layer occupancy (ticks)
system.membus.respLayer1.utilization              3.9                       # Layer utilization (%)
system.tol2bus.trans_dist::ReadResp              2233                       # Transaction distribution
system.tol2bus.trans_dist::WritebackDirty     20985019                       # Transaction distribution
system.tol2bus.trans_dist::WritebackClean          366                       # Transaction distribution
system.tol2bus.trans_dist::CleanEvict            2507                       # Transaction distribution
system.tol2bus.trans_dist::ReadExReq         10526571                       # Transaction distribution
system.tol2bus.trans_dist::ReadExResp        10526570                       # Transaction distribution
system.tol2bus.trans_dist::ReadCleanReq           987                       # Transaction distribution
system.tol2bus.trans_dist::ReadSharedReq         1246                       # Transaction distribution
system.tol2bus.trans_dist::InvalidateReq            1                       # Transaction distribution
system.tol2bus.trans_dist::InvalidateResp            1                       # Transaction distribution
system.tol2bus.pkt_count_system.cpu.icache.mem_side_port::system.l2.cpu_side_port         2340                       # Packet count per connected requestor and responder (bytes)
system.tol2bus.pkt_count_system.cpu.dcache.mem_side_port::system.l2.cpu_side_port     31581404                       # Packet count per connected requestor and responder (bytes)
system.tol2bus.pkt_count::total              31583744                       # Packet count per connected requestor and responder (bytes)
system.tol2bus.pkt_size_system.cpu.icache.mem_side_port::system.l2.cpu_side_port        43296                       # Cumulative packet size per connected requestor and responder (bytes)
system.tol2bus.pkt_size_system.cpu.dcache.mem_side_port::system.l2.cpu_side_port    673679488                       # Cumulative packet size per connected requestor and responder (bytes)
system.tol2bus.pkt_size::total              673722784                       # Cumulative packet size per connected requestor and responder (bytes)
system.tol2bus.snoops                        10461757                       # Total snoops (count)
system.tol2bus.snoopTraffic                 334731232                       # Total snoop traffic (bytes)
system.tol2bus.snoop_fanout::samples         20990562                       # Request fanout histogram
system.tol2bus.snoop_fanout::mean            0.000041                       # Request fanout histogram
system.tol2bus.snoop_fanout::stdev           0.006442                       # Request fanout histogram
system.tol2bus.snoop_fanout::underflows             0      0.00%      0.00% # Request fanout histogram
system.tol2bus.snoop_fanout::0               20989691    100.00%    100.00% # Request fanout histogram
system.tol2bus.snoop_fanout::1                    871      0.00%    100.00% # Request fanout histogram
system.tol2bus.snoop_fanout::2                      0      0.00%    100.00% # Request fanout histogram
system.tol2bus.snoop_fanout::overflows              0      0.00%    100.00% # Request fanout histogram
system.tol2bus.snoop_fanout::min_value              0                       # Request fanout histogram
system.tol2bus.snoop_fanout::max_value              1                       # Request fanout histogram
system.tol2bus.snoop_fanout::total           20990562                       # Request fanout histogram
system.tol2bus.power_state.pwrStateResidencyTicks::UNDEFINED 882386132500                       # Cumulative time (in ticks) in various power states
system.tol2bus.reqLayer0.occupancy        15789987000                       # Layer occupancy (ticks)
system.tol2bus.reqLayer0.utilization              1.8                       # Layer utilization (%)
system.tol2bus.respLayer0.occupancy            987499                       # Layer occupancy (ticks)
system.tol2bus.respLayer0.utilization             0.0                       # Layer utilization (%)
system.tol2bus.respLayer1.occupancy       10527818496                       # Layer occupancy (ticks)
system.tol2bus.respLayer1.utilization             1.2                       # Layer utilization (%)
system.voltage_domain.voltage                       1                       # Voltage in Volts

---------- End Simulation Statistics   ----------
