
---------- Begin Simulation Statistics ----------
final_tick                                85360013000                       # Number of ticks from beginning of simulation (restored from checkpoints and never reset)
host_inst_rate                                 389996                       # Simulator instruction rate (inst/s)
host_mem_usage                                 668544                       # Number of bytes of host memory used
host_op_rate                                   390762                       # Simulator op (including micro ops) rate (op/s)
host_seconds                                   256.41                       # Real time elapsed on the host
host_tick_rate                              332900786                       # Simulator tick rate (ticks/s)
sim_freq                                 1000000000000                       # Frequency of simulated ticks
sim_insts                                   100000001                       # Number of instructions simulated
sim_ops                                     100196356                       # Number of ops (including micro ops) simulated
sim_seconds                                  0.085360                       # Number of seconds simulated
sim_ticks                                 85360013000                       # Number of ticks simulated
system.cpu.committedInsts                   100000001                       # Number of instructions committed
system.cpu.committedOps                     100196356                       # Number of ops (including micro ops) committed
system.cpu.cpi                               1.707200                       # CPI: cycles per instruction
system.cpu.discardedOps                        189496                       # Number of ops (including micro ops) which were discarded before commit
system.cpu.idleCycles                        37771234                       # Total number of cycles that the object has spent stopped
system.cpu.ipc                               0.585754                       # IPC: instructions per cycle
system.cpu.numCycles                        170720026                       # number of cpu cycles simulated
system.cpu.numFetchSuspends                         0                       # Number of times Execute suspended instruction fetching
system.cpu.numWorkItemsCompleted                    0                       # number of work items this cpu completed
system.cpu.numWorkItemsStarted                      0                       # number of work items this cpu started
system.cpu.op_class_0::No_OpClass                   0      0.00%      0.00% # Class of committed instruction
system.cpu.op_class_0::IntAlu                46526863     46.44%     46.44% # Class of committed instruction
system.cpu.op_class_0::IntMult                  20723      0.02%     46.46% # Class of committed instruction
system.cpu.op_class_0::IntDiv                       0      0.00%     46.46% # Class of committed instruction
system.cpu.op_class_0::FloatAdd                     0      0.00%     46.46% # Class of committed instruction
system.cpu.op_class_0::FloatCmp                     0      0.00%     46.46% # Class of committed instruction
system.cpu.op_class_0::FloatCvt                     0      0.00%     46.46% # Class of committed instruction
system.cpu.op_class_0::FloatMult                    0      0.00%     46.46% # Class of committed instruction
system.cpu.op_class_0::FloatMultAcc                 0      0.00%     46.46% # Class of committed instruction
system.cpu.op_class_0::FloatDiv                     0      0.00%     46.46% # Class of committed instruction
system.cpu.op_class_0::FloatMisc                    0      0.00%     46.46% # Class of committed instruction
system.cpu.op_class_0::FloatSqrt                    0      0.00%     46.46% # Class of committed instruction
system.cpu.op_class_0::SimdAdd                      0      0.00%     46.46% # Class of committed instruction
system.cpu.op_class_0::SimdAddAcc                   0      0.00%     46.46% # Class of committed instruction
system.cpu.op_class_0::SimdAlu                      0      0.00%     46.46% # Class of committed instruction
system.cpu.op_class_0::SimdCmp                      0      0.00%     46.46% # Class of committed instruction
system.cpu.op_class_0::SimdCvt                      0      0.00%     46.46% # Class of committed instruction
system.cpu.op_class_0::SimdMisc                     0      0.00%     46.46% # Class of committed instruction
system.cpu.op_class_0::SimdMult                     0      0.00%     46.46% # Class of committed instruction
system.cpu.op_class_0::SimdMultAcc                  0      0.00%     46.46% # Class of committed instruction
system.cpu.op_class_0::SimdShift                    0      0.00%     46.46% # Class of committed instruction
system.cpu.op_class_0::SimdShiftAcc                 0      0.00%     46.46% # Class of committed instruction
system.cpu.op_class_0::SimdDiv                      0      0.00%     46.46% # Class of committed instruction
system.cpu.op_class_0::SimdSqrt                     0      0.00%     46.46% # Class of committed instruction
system.cpu.op_class_0::SimdFloatAdd                 0      0.00%     46.46% # Class of committed instruction
system.cpu.op_class_0::SimdFloatAlu                 0      0.00%     46.46% # Class of committed instruction
system.cpu.op_class_0::SimdFloatCmp                 0      0.00%     46.46% # Class of committed instruction
system.cpu.op_class_0::SimdFloatCvt                 0      0.00%     46.46% # Class of committed instruction
system.cpu.op_class_0::SimdFloatDiv                 0      0.00%     46.46% # Class of committed instruction
system.cpu.op_class_0::SimdFloatMisc               18      0.00%     46.46% # Class of committed instruction
system.cpu.op_class_0::SimdFloatMult                0      0.00%     46.46% # Class of committed instruction
system.cpu.op_class_0::SimdFloatMultAcc             0      0.00%     46.46% # Class of committed instruction
system.cpu.op_class_0::SimdFloatSqrt                0      0.00%     46.46% # Class of committed instruction
system.cpu.op_class_0::SimdReduceAdd                0      0.00%     46.46% # Class of committed instruction
system.cpu.op_class_0::SimdReduceAlu                0      0.00%     46.46% # Class of committed instruction
system.cpu.op_class_0::SimdReduceCmp                0      0.00%     46.46% # Class of committed instruction
system.cpu.op_class_0::SimdFloatReduceAdd            0      0.00%     46.46% # Class of committed instruction
system.cpu.op_class_0::SimdFloatReduceCmp            0      0.00%     46.46% # Class of committed instruction
system.cpu.op_class_0::SimdAes                      0      0.00%     46.46% # Class of committed instruction
system.cpu.op_class_0::SimdAesMix                   0      0.00%     46.46% # Class of committed instruction
system.cpu.op_class_0::SimdSha1Hash                 0      0.00%     46.46% # Class of committed instruction
system.cpu.op_class_0::SimdSha1Hash2                0      0.00%     46.46% # Class of committed instruction
system.cpu.op_class_0::SimdSha256Hash               0      0.00%     46.46% # Class of committed instruction
system.cpu.op_class_0::SimdSha256Hash2              0      0.00%     46.46% # Class of committed instruction
system.cpu.op_class_0::SimdShaSigma2                0      0.00%     46.46% # Class of committed instruction
system.cpu.op_class_0::SimdShaSigma3                0      0.00%     46.46% # Class of committed instruction
system.cpu.op_class_0::SimdPredAlu                  0      0.00%     46.46% # Class of committed instruction
system.cpu.op_class_0::MemRead               42690537     42.61%     89.06% # Class of committed instruction
system.cpu.op_class_0::MemWrite              10958215     10.94%    100.00% # Class of committed instruction
system.cpu.op_class_0::FloatMemRead                 0      0.00%    100.00% # Class of committed instruction
system.cpu.op_class_0::FloatMemWrite                0      0.00%    100.00% # Class of committed instruction
system.cpu.op_class_0::IprAccess                    0      0.00%    100.00% # Class of committed instruction
system.cpu.op_class_0::InstPrefetch                 0      0.00%    100.00% # Class of committed instruction
system.cpu.op_class_0::total                100196356                       # Class of committed instruction
system.cpu.tickCycles                       132948792                       # Number of cycles that the object actually ticked
system.cpu.workload.numSyscalls                    85                       # Number of system calls
system.membus.snoop_filter.hit_multi_requests            0                       # Number of requests hitting in the snoop filter with multiple (>1) holders of the requested data.
system.membus.snoop_filter.hit_multi_snoops            0                       # Number of snoops hitting in the snoop filter with multiple (>1) holders of the requested data.
system.membus.snoop_filter.hit_single_requests       168939                       # Number of requests hitting in the snoop filter with a single holder of the requested data.
system.membus.snoop_filter.hit_single_snoops            0                       # Number of snoops hitting in the snoop filter with a single holder of the requested data.
system.membus.snoop_filter.tot_requests        370790                       # Total number of requests made to the snoop filter.
system.membus.snoop_filter.tot_snoops               0                       # Total number of snoops made to the snoop filter.
system.tol2bus.snoop_filter.hit_multi_requests          382                       # Number of requests hitting in the snoop filter with multiple (>1) holders of the requested data.
system.tol2bus.snoop_filter.hit_multi_snoops            0                       # Number of snoops hitting in the snoop filter with multiple (>1) holders of the requested data.
system.tol2bus.snoop_filter.hit_single_requests       875209                       # Number of requests hitting in the snoop filter with a single holder of the requested data.
system.tol2bus.snoop_filter.hit_single_snoops          402                       # Number of snoops hitting in the snoop filter with a single holder of the requested data.
system.tol2bus.snoop_filter.tot_requests      1751184                       # Total number of requests made to the snoop filter.
system.tol2bus.snoop_filter.tot_snoops            402                       # Total number of snoops made to the snoop filter.
system.clk_domain.clock                          1000                       # Clock period in ticks
system.cpu.branchPred.lookups                 4485725                       # Number of BP lookups
system.cpu.branchPred.condPredicted           3735419                       # Number of conditional branches predicted
system.cpu.branchPred.condIncorrect             81005                       # Number of conditional branches incorrect
system.cpu.branchPred.BTBLookups              2103822                       # Number of BTB lookups
system.cpu.branchPred.BTBHits                 2101823                       # Number of BTB hits
system.cpu.branchPred.BTBHitPct             99.904982                       # BTB Hit Percentage
system.cpu.branchPred.RASUsed                   65378                       # Number of times the RAS was used to get a target.
system.cpu.branchPred.RASIncorrect                 14                       # Number of incorrect RAS predictions.
system.cpu.branchPred.indirectLookups             692                       # Number of indirect predictor lookups.
system.cpu.branchPred.indirectHits                288                       # Number of indirect target hits.
system.cpu.branchPred.indirectMisses              404                       # Number of indirect misses.
system.cpu.branchPred.indirectMispredicted          171                       # Number of mispredicted indirect branches.
system.cpu.dcache.demand_hits::.cpu.data     51135935                       # number of demand (read+write) hits
system.cpu.dcache.demand_hits::total         51135935                       # number of demand (read+write) hits
system.cpu.dcache.overall_hits::.cpu.data     51136407                       # number of overall hits
system.cpu.dcache.overall_hits::total        51136407                       # number of overall hits
system.cpu.dcache.demand_misses::.cpu.data       930182                       # number of demand (read+write) misses
system.cpu.dcache.demand_misses::total         930182                       # number of demand (read+write) misses
system.cpu.dcache.overall_misses::.cpu.data       938129                       # number of overall misses
system.cpu.dcache.overall_misses::total        938129                       # number of overall misses
system.cpu.dcache.demand_miss_latency::.cpu.data  27142628500                       # number of demand (read+write) miss cycles
system.cpu.dcache.demand_miss_latency::total  27142628500                       # number of demand (read+write) miss cycles
system.cpu.dcache.overall_miss_latency::.cpu.data  27142628500                       # number of overall miss cycles
system.cpu.dcache.overall_miss_latency::total  27142628500                       # number of overall miss cycles
system.cpu.dcache.demand_accesses::.cpu.data     52066117                       # number of demand (read+write) accesses
system.cpu.dcache.demand_accesses::total     52066117                       # number of demand (read+write) accesses
system.cpu.dcache.overall_accesses::.cpu.data     52074536                       # number of overall (read+write) accesses
system.cpu.dcache.overall_accesses::total     52074536                       # number of overall (read+write) accesses
system.cpu.dcache.demand_miss_rate::.cpu.data     0.017865                       # miss rate for demand accesses
system.cpu.dcache.demand_miss_rate::total     0.017865                       # miss rate for demand accesses
system.cpu.dcache.overall_miss_rate::.cpu.data     0.018015                       # miss rate for overall accesses
system.cpu.dcache.overall_miss_rate::total     0.018015                       # miss rate for overall accesses
system.cpu.dcache.demand_avg_miss_latency::.cpu.data 29179.911566                       # average overall miss latency
system.cpu.dcache.demand_avg_miss_latency::total 29179.911566                       # average overall miss latency
system.cpu.dcache.overall_avg_miss_latency::.cpu.data 28932.725137                       # average overall miss latency
system.cpu.dcache.overall_avg_miss_latency::total 28932.725137                       # average overall miss latency
system.cpu.dcache.blocked_cycles::no_mshrs       207480                       # number of cycles access was blocked
system.cpu.dcache.blocked_cycles::no_targets            0                       # number of cycles access was blocked
system.cpu.dcache.blocked::no_mshrs              3877                       # number of cycles access was blocked
system.cpu.dcache.blocked::no_targets               0                       # number of cycles access was blocked
system.cpu.dcache.avg_blocked_cycles::no_mshrs    53.515605                       # average number of cycles each access was blocked
system.cpu.dcache.avg_blocked_cycles::no_targets          nan                       # average number of cycles each access was blocked
system.cpu.dcache.writebacks::.writebacks       795958                       # number of writebacks
system.cpu.dcache.writebacks::total            795958                       # number of writebacks
system.cpu.dcache.demand_mshr_hits::.cpu.data        62975                       # number of demand (read+write) MSHR hits
system.cpu.dcache.demand_mshr_hits::total        62975                       # number of demand (read+write) MSHR hits
system.cpu.dcache.overall_mshr_hits::.cpu.data        62975                       # number of overall MSHR hits
system.cpu.dcache.overall_mshr_hits::total        62975                       # number of overall MSHR hits
system.cpu.dcache.demand_mshr_misses::.cpu.data       867207                       # number of demand (read+write) MSHR misses
system.cpu.dcache.demand_mshr_misses::total       867207                       # number of demand (read+write) MSHR misses
system.cpu.dcache.overall_mshr_misses::.cpu.data       875150                       # number of overall MSHR misses
system.cpu.dcache.overall_mshr_misses::total       875150                       # number of overall MSHR misses
system.cpu.dcache.demand_mshr_miss_latency::.cpu.data  24697498000                       # number of demand (read+write) MSHR miss cycles
system.cpu.dcache.demand_mshr_miss_latency::total  24697498000                       # number of demand (read+write) MSHR miss cycles
system.cpu.dcache.overall_mshr_miss_latency::.cpu.data  25378245499                       # number of overall MSHR miss cycles
system.cpu.dcache.overall_mshr_miss_latency::total  25378245499                       # number of overall MSHR miss cycles
system.cpu.dcache.demand_mshr_miss_rate::.cpu.data     0.016656                       # mshr miss rate for demand accesses
system.cpu.dcache.demand_mshr_miss_rate::total     0.016656                       # mshr miss rate for demand accesses
system.cpu.dcache.overall_mshr_miss_rate::.cpu.data     0.016806                       # mshr miss rate for overall accesses
system.cpu.dcache.overall_mshr_miss_rate::total     0.016806                       # mshr miss rate for overall accesses
system.cpu.dcache.demand_avg_mshr_miss_latency::.cpu.data 28479.357293                       # average overall mshr miss latency
system.cpu.dcache.demand_avg_mshr_miss_latency::total 28479.357293                       # average overall mshr miss latency
system.cpu.dcache.overall_avg_mshr_miss_latency::.cpu.data 28998.737929                       # average overall mshr miss latency
system.cpu.dcache.overall_avg_mshr_miss_latency::total 28998.737929                       # average overall mshr miss latency
system.cpu.dcache.replacements                 874638                       # number of replacements
system.cpu.dcache.ReadReq_hits::.cpu.data     40590466                       # number of ReadReq hits
system.cpu.dcache.ReadReq_hits::total        40590466                       # number of ReadReq hits
system.cpu.dcache.ReadReq_misses::.cpu.data       526569                       # number of ReadReq misses
system.cpu.dcache.ReadReq_misses::total        526569                       # number of ReadReq misses
system.cpu.dcache.ReadReq_miss_latency::.cpu.data  10799554500                       # number of ReadReq miss cycles
system.cpu.dcache.ReadReq_miss_latency::total  10799554500                       # number of ReadReq miss cycles
system.cpu.dcache.ReadReq_accesses::.cpu.data     41117035                       # number of ReadReq accesses(hits+misses)
system.cpu.dcache.ReadReq_accesses::total     41117035                       # number of ReadReq accesses(hits+misses)
system.cpu.dcache.ReadReq_miss_rate::.cpu.data     0.012807                       # miss rate for ReadReq accesses
system.cpu.dcache.ReadReq_miss_rate::total     0.012807                       # miss rate for ReadReq accesses
system.cpu.dcache.ReadReq_avg_miss_latency::.cpu.data 20509.286532                       # average ReadReq miss latency
system.cpu.dcache.ReadReq_avg_miss_latency::total 20509.286532                       # average ReadReq miss latency
system.cpu.dcache.ReadReq_mshr_hits::.cpu.data          569                       # number of ReadReq MSHR hits
system.cpu.dcache.ReadReq_mshr_hits::total          569                       # number of ReadReq MSHR hits
system.cpu.dcache.ReadReq_mshr_misses::.cpu.data       526000                       # number of ReadReq MSHR misses
system.cpu.dcache.ReadReq_mshr_misses::total       526000                       # number of ReadReq MSHR misses
system.cpu.dcache.ReadReq_mshr_miss_latency::.cpu.data  10249364000                       # number of ReadReq MSHR miss cycles
system.cpu.dcache.ReadReq_mshr_miss_latency::total  10249364000                       # number of ReadReq MSHR miss cycles
system.cpu.dcache.ReadReq_mshr_miss_rate::.cpu.data     0.012793                       # mshr miss rate for ReadReq accesses
system.cpu.dcache.ReadReq_mshr_miss_rate::total     0.012793                       # mshr miss rate for ReadReq accesses
system.cpu.dcache.ReadReq_avg_mshr_miss_latency::.cpu.data 19485.482890                       # average ReadReq mshr miss latency
system.cpu.dcache.ReadReq_avg_mshr_miss_latency::total 19485.482890                       # average ReadReq mshr miss latency
system.cpu.dcache.WriteReq_hits::.cpu.data     10545469                       # number of WriteReq hits
system.cpu.dcache.WriteReq_hits::total       10545469                       # number of WriteReq hits
system.cpu.dcache.WriteReq_misses::.cpu.data       403613                       # number of WriteReq misses
system.cpu.dcache.WriteReq_misses::total       403613                       # number of WriteReq misses
system.cpu.dcache.WriteReq_miss_latency::.cpu.data  16343074000                       # number of WriteReq miss cycles
system.cpu.dcache.WriteReq_miss_latency::total  16343074000                       # number of WriteReq miss cycles
system.cpu.dcache.WriteReq_accesses::.cpu.data     10949082                       # number of WriteReq accesses(hits+misses)
system.cpu.dcache.WriteReq_accesses::total     10949082                       # number of WriteReq accesses(hits+misses)
system.cpu.dcache.WriteReq_miss_rate::.cpu.data     0.036863                       # miss rate for WriteReq accesses
system.cpu.dcache.WriteReq_miss_rate::total     0.036863                       # miss rate for WriteReq accesses
system.cpu.dcache.WriteReq_avg_miss_latency::.cpu.data 40491.941538                       # average WriteReq miss latency
system.cpu.dcache.WriteReq_avg_miss_latency::total 40491.941538                       # average WriteReq miss latency
system.cpu.dcache.WriteReq_mshr_hits::.cpu.data        62406                       # number of WriteReq MSHR hits
system.cpu.dcache.WriteReq_mshr_hits::total        62406                       # number of WriteReq MSHR hits
system.cpu.dcache.WriteReq_mshr_misses::.cpu.data       341207                       # number of WriteReq MSHR misses
system.cpu.dcache.WriteReq_mshr_misses::total       341207                       # number of WriteReq MSHR misses
system.cpu.dcache.WriteReq_mshr_miss_latency::.cpu.data  14448134000                       # number of WriteReq MSHR miss cycles
system.cpu.dcache.WriteReq_mshr_miss_latency::total  14448134000                       # number of WriteReq MSHR miss cycles
system.cpu.dcache.WriteReq_mshr_miss_rate::.cpu.data     0.031163                       # mshr miss rate for WriteReq accesses
system.cpu.dcache.WriteReq_mshr_miss_rate::total     0.031163                       # mshr miss rate for WriteReq accesses
system.cpu.dcache.WriteReq_avg_mshr_miss_latency::.cpu.data 42344.189891                       # average WriteReq mshr miss latency
system.cpu.dcache.WriteReq_avg_mshr_miss_latency::total 42344.189891                       # average WriteReq mshr miss latency
system.cpu.dcache.SoftPFReq_hits::.cpu.data          472                       # number of SoftPFReq hits
system.cpu.dcache.SoftPFReq_hits::total           472                       # number of SoftPFReq hits
system.cpu.dcache.SoftPFReq_misses::.cpu.data         7947                       # number of SoftPFReq misses
system.cpu.dcache.SoftPFReq_misses::total         7947                       # number of SoftPFReq misses
system.cpu.dcache.SoftPFReq_accesses::.cpu.data         8419                       # number of SoftPFReq accesses(hits+misses)
system.cpu.dcache.SoftPFReq_accesses::total         8419                       # number of SoftPFReq accesses(hits+misses)
system.cpu.dcache.SoftPFReq_miss_rate::.cpu.data     0.943936                       # miss rate for SoftPFReq accesses
system.cpu.dcache.SoftPFReq_miss_rate::total     0.943936                       # miss rate for SoftPFReq accesses
system.cpu.dcache.SoftPFReq_mshr_misses::.cpu.data         7943                       # number of SoftPFReq MSHR misses
system.cpu.dcache.SoftPFReq_mshr_misses::total         7943                       # number of SoftPFReq MSHR misses
system.cpu.dcache.SoftPFReq_mshr_miss_latency::.cpu.data    680747499                       # number of SoftPFReq MSHR miss cycles
system.cpu.dcache.SoftPFReq_mshr_miss_latency::total    680747499                       # number of SoftPFReq MSHR miss cycles
system.cpu.dcache.SoftPFReq_mshr_miss_rate::.cpu.data     0.943461                       # mshr miss rate for SoftPFReq accesses
system.cpu.dcache.SoftPFReq_mshr_miss_rate::total     0.943461                       # mshr miss rate for SoftPFReq accesses
system.cpu.dcache.SoftPFReq_avg_mshr_miss_latency::.cpu.data 85704.078937                       # average SoftPFReq mshr miss latency
system.cpu.dcache.SoftPFReq_avg_mshr_miss_latency::total 85704.078937                       # average SoftPFReq mshr miss latency
system.cpu.dcache.LoadLockedReq_hits::.cpu.data           38                       # number of LoadLockedReq hits
system.cpu.dcache.LoadLockedReq_hits::total           38                       # number of LoadLockedReq hits
system.cpu.dcache.LoadLockedReq_accesses::.cpu.data           38                       # number of LoadLockedReq accesses(hits+misses)
system.cpu.dcache.LoadLockedReq_accesses::total           38                       # number of LoadLockedReq accesses(hits+misses)
system.cpu.dcache.StoreCondReq_hits::.cpu.data           38                       # number of StoreCondReq hits
system.cpu.dcache.StoreCondReq_hits::total           38                       # number of StoreCondReq hits
system.cpu.dcache.StoreCondReq_accesses::.cpu.data           38                       # number of StoreCondReq accesses(hits+misses)
system.cpu.dcache.StoreCondReq_accesses::total           38                       # number of StoreCondReq accesses(hits+misses)
system.cpu.dcache.power_state.pwrStateResidencyTicks::UNDEFINED  85360013000                       # Cumulative time (in ticks) in various power states
system.cpu.dcache.tags.tagsinuse           505.527437                       # Cycle average of tags in use
system.cpu.dcache.tags.total_refs            52011633                       # Total number of references to valid blocks.
system.cpu.dcache.tags.sampled_refs            875150                       # Sample count of references to valid blocks.
system.cpu.dcache.tags.avg_refs             59.431678                       # Average number of references to valid blocks.
system.cpu.dcache.tags.warmup_cycle            176500                       # Cycle when the warmup percentage was hit.
system.cpu.dcache.tags.occ_blocks::.cpu.data   505.527437                       # Average occupied blocks per requestor
system.cpu.dcache.tags.occ_percent::.cpu.data     0.987358                       # Average percentage of cache occupancy
system.cpu.dcache.tags.occ_percent::total     0.987358                       # Average percentage of cache occupancy
system.cpu.dcache.tags.occ_task_id_blocks::1024          512                       # Occupied blocks per task id
system.cpu.dcache.tags.age_task_id_blocks_1024::0           70                       # Occupied blocks per task id
system.cpu.dcache.tags.age_task_id_blocks_1024::1          351                       # Occupied blocks per task id
system.cpu.dcache.tags.age_task_id_blocks_1024::2           90                       # Occupied blocks per task id
system.cpu.dcache.tags.age_task_id_blocks_1024::3            1                       # Occupied blocks per task id
system.cpu.dcache.tags.occ_task_id_percent::1024            1                       # Percentage of cache occupancy per task id
system.cpu.dcache.tags.tag_accesses         105024374                       # Number of tag accesses
system.cpu.dcache.tags.data_accesses        105024374                       # Number of data accesses
system.cpu.dcache.tags.power_state.pwrStateResidencyTicks::UNDEFINED  85360013000                       # Cumulative time (in ticks) in various power states
system.cpu.dtb.instHits                             0                       # ITB inst hits
system.cpu.dtb.instMisses                           0                       # ITB inst misses
system.cpu.dtb.readHits                             0                       # DTB read hits
system.cpu.dtb.readMisses                           0                       # DTB read misses
system.cpu.dtb.writeHits                            0                       # DTB write hits
system.cpu.dtb.writeMisses                          0                       # DTB write misses
system.cpu.dtb.inserts                              0                       # Number of times an entry is inserted into the TLB
system.cpu.dtb.flushTlb                             0                       # Number of times complete TLB was flushed
system.cpu.dtb.flushTlbMva                          0                       # Number of times TLB was flushed by MVA
system.cpu.dtb.flushTlbMvaAsid                      0                       # Number of times TLB was flushed by MVA & ASID
system.cpu.dtb.flushTlbAsid                         0                       # Number of times TLB was flushed by ASID
system.cpu.dtb.flushedEntries                       0                       # Number of entries that have been flushed from TLB
system.cpu.dtb.alignFaults                          0                       # Number of TLB faults due to alignment restrictions
system.cpu.dtb.prefetchFaults                       0                       # Number of TLB faults due to prefetch
system.cpu.dtb.domainFaults                         0                       # Number of TLB faults due to domain restrictions
system.cpu.dtb.permsFaults                          0                       # Number of TLB faults due to permissions restrictions
system.cpu.dtb.readAccesses                         0                       # DTB read accesses
system.cpu.dtb.writeAccesses                        0                       # DTB write accesses
system.cpu.dtb.instAccesses                         0                       # ITB inst accesses
system.cpu.dtb.hits                                 0                       # Total TLB (inst and data) hits
system.cpu.dtb.misses                               0                       # Total TLB (inst and data) misses
system.cpu.dtb.accesses                             0                       # Total TLB (inst and data) accesses
system.cpu.dtb.stage2_mmu.stage2_tlb.instHits            0                       # ITB inst hits
system.cpu.dtb.stage2_mmu.stage2_tlb.instMisses            0                       # ITB inst misses
system.cpu.dtb.stage2_mmu.stage2_tlb.readHits            0                       # DTB read hits
system.cpu.dtb.stage2_mmu.stage2_tlb.readMisses            0                       # DTB read misses
system.cpu.dtb.stage2_mmu.stage2_tlb.writeHits            0                       # DTB write hits
system.cpu.dtb.stage2_mmu.stage2_tlb.writeMisses            0                       # DTB write misses
system.cpu.dtb.stage2_mmu.stage2_tlb.inserts            0                       # Number of times an entry is inserted into the TLB
system.cpu.dtb.stage2_mmu.stage2_tlb.flushTlb            0                       # Number of times complete TLB was flushed
system.cpu.dtb.stage2_mmu.stage2_tlb.flushTlbMva            0                       # Number of times TLB was flushed by MVA
system.cpu.dtb.stage2_mmu.stage2_tlb.flushTlbMvaAsid            0                       # Number of times TLB was flushed by MVA & ASID
system.cpu.dtb.stage2_mmu.stage2_tlb.flushTlbAsid            0                       # Number of times TLB was flushed by ASID
system.cpu.dtb.stage2_mmu.stage2_tlb.flushedEntries            0                       # Number of entries that have been flushed from TLB
system.cpu.dtb.stage2_mmu.stage2_tlb.alignFaults            0                       # Number of TLB faults due to alignment restrictions
system.cpu.dtb.stage2_mmu.stage2_tlb.prefetchFaults            0                       # Number of TLB faults due to prefetch
system.cpu.dtb.stage2_mmu.stage2_tlb.domainFaults            0                       # Number of TLB faults due to domain restrictions
system.cpu.dtb.stage2_mmu.stage2_tlb.permsFaults            0                       # Number of TLB faults due to permissions restrictions
system.cpu.dtb.stage2_mmu.stage2_tlb.readAccesses            0                       # DTB read accesses
system.cpu.dtb.stage2_mmu.stage2_tlb.writeAccesses            0                       # DTB write accesses
system.cpu.dtb.stage2_mmu.stage2_tlb.instAccesses            0                       # ITB inst accesses
system.cpu.dtb.stage2_mmu.stage2_tlb.hits            0                       # Total TLB (inst and data) hits
system.cpu.dtb.stage2_mmu.stage2_tlb.misses            0                       # Total TLB (inst and data) misses
system.cpu.dtb.stage2_mmu.stage2_tlb.accesses            0                       # Total TLB (inst and data) accesses
system.cpu.dtb.stage2_mmu.stage2_tlb.walker.walks            0                       # Table walker walks requested
system.cpu.dtb.stage2_mmu.stage2_tlb.walker.requestOrigin_Requested::Data            0                       # Table walker requests started/completed, data/inst
system.cpu.dtb.stage2_mmu.stage2_tlb.walker.requestOrigin_Requested::Inst            0                       # Table walker requests started/completed, data/inst
system.cpu.dtb.stage2_mmu.stage2_tlb.walker.requestOrigin_Requested::total            0                       # Table walker requests started/completed, data/inst
system.cpu.dtb.stage2_mmu.stage2_tlb.walker.requestOrigin_Completed::Data            0                       # Table walker requests started/completed, data/inst
system.cpu.dtb.stage2_mmu.stage2_tlb.walker.requestOrigin_Completed::Inst            0                       # Table walker requests started/completed, data/inst
system.cpu.dtb.stage2_mmu.stage2_tlb.walker.requestOrigin_Completed::total            0                       # Table walker requests started/completed, data/inst
system.cpu.dtb.stage2_mmu.stage2_tlb.walker.requestOrigin::total            0                       # Table walker requests started/completed, data/inst
system.cpu.dtb.stage2_mmu.stage2_tlb.walker.power_state.pwrStateResidencyTicks::UNDEFINED  85360013000                       # Cumulative time (in ticks) in various power states
system.cpu.dtb.walker.walks                         0                       # Table walker walks requested
system.cpu.dtb.walker.requestOrigin_Requested::Data            0                       # Table walker requests started/completed, data/inst
system.cpu.dtb.walker.requestOrigin_Requested::Inst            0                       # Table walker requests started/completed, data/inst
system.cpu.dtb.walker.requestOrigin_Requested::total            0                       # Table walker requests started/completed, data/inst
system.cpu.dtb.walker.requestOrigin_Completed::Data            0                       # Table walker requests started/completed, data/inst
system.cpu.dtb.walker.requestOrigin_Completed::Inst            0                       # Table walker requests started/completed, data/inst
system.cpu.dtb.walker.requestOrigin_Completed::total            0                       # Table walker requests started/completed, data/inst
system.cpu.dtb.walker.requestOrigin::total            0                       # Table walker requests started/completed, data/inst
system.cpu.dtb.walker.power_state.pwrStateResidencyTicks::UNDEFINED  85360013000                       # Cumulative time (in ticks) in various power states
system.cpu.fetch2.intInstructions            42685838                       # Number of integer instructions successfully decoded
system.cpu.fetch2.fpInstructions                    0                       # Number of floating point instructions successfully decoded
system.cpu.fetch2.vecInstructions                   0                       # Number of SIMD instructions successfully decoded
system.cpu.fetch2.loadInstructions           43475080                       # Number of memory load instructions successfully decoded
system.cpu.fetch2.storeInstructions          11024943                       # Number of memory store instructions successfully decoded
system.cpu.fetch2.amoInstructions                   0                       # Number of memory atomic instructions successfully decoded
system.cpu.icache.demand_hits::.cpu.inst     10278007                       # number of demand (read+write) hits
system.cpu.icache.demand_hits::total         10278007                       # number of demand (read+write) hits
system.cpu.icache.overall_hits::.cpu.inst     10278007                       # number of overall hits
system.cpu.icache.overall_hits::total        10278007                       # number of overall hits
system.cpu.icache.demand_misses::.cpu.inst          826                       # number of demand (read+write) misses
system.cpu.icache.demand_misses::total            826                       # number of demand (read+write) misses
system.cpu.icache.overall_misses::.cpu.inst          826                       # number of overall misses
system.cpu.icache.overall_misses::total           826                       # number of overall misses
system.cpu.icache.demand_miss_latency::.cpu.inst     56657500                       # number of demand (read+write) miss cycles
system.cpu.icache.demand_miss_latency::total     56657500                       # number of demand (read+write) miss cycles
system.cpu.icache.overall_miss_latency::.cpu.inst     56657500                       # number of overall miss cycles
system.cpu.icache.overall_miss_latency::total     56657500                       # number of overall miss cycles
system.cpu.icache.demand_accesses::.cpu.inst     10278833                       # number of demand (read+write) accesses
system.cpu.icache.demand_accesses::total     10278833                       # number of demand (read+write) accesses
system.cpu.icache.overall_accesses::.cpu.inst     10278833                       # number of overall (read+write) accesses
system.cpu.icache.overall_accesses::total     10278833                       # number of overall (read+write) accesses
system.cpu.icache.demand_miss_rate::.cpu.inst     0.000080                       # miss rate for demand accesses
system.cpu.icache.demand_miss_rate::total     0.000080                       # miss rate for demand accesses
system.cpu.icache.overall_miss_rate::.cpu.inst     0.000080                       # miss rate for overall accesses
system.cpu.icache.overall_miss_rate::total     0.000080                       # miss rate for overall accesses
system.cpu.icache.demand_avg_miss_latency::.cpu.inst 68592.615012                       # average overall miss latency
system.cpu.icache.demand_avg_miss_latency::total 68592.615012                       # average overall miss latency
system.cpu.icache.overall_avg_miss_latency::.cpu.inst 68592.615012                       # average overall miss latency
system.cpu.icache.overall_avg_miss_latency::total 68592.615012                       # average overall miss latency
system.cpu.icache.blocked_cycles::no_mshrs            0                       # number of cycles access was blocked
system.cpu.icache.blocked_cycles::no_targets            0                       # number of cycles access was blocked
system.cpu.icache.blocked::no_mshrs                 0                       # number of cycles access was blocked
system.cpu.icache.blocked::no_targets               0                       # number of cycles access was blocked
system.cpu.icache.avg_blocked_cycles::no_mshrs          nan                       # average number of cycles each access was blocked
system.cpu.icache.avg_blocked_cycles::no_targets          nan                       # average number of cycles each access was blocked
system.cpu.icache.writebacks::.writebacks          570                       # number of writebacks
system.cpu.icache.writebacks::total               570                       # number of writebacks
system.cpu.icache.demand_mshr_misses::.cpu.inst          826                       # number of demand (read+write) MSHR misses
system.cpu.icache.demand_mshr_misses::total          826                       # number of demand (read+write) MSHR misses
system.cpu.icache.overall_mshr_misses::.cpu.inst          826                       # number of overall MSHR misses
system.cpu.icache.overall_mshr_misses::total          826                       # number of overall MSHR misses
system.cpu.icache.demand_mshr_miss_latency::.cpu.inst     55831500                       # number of demand (read+write) MSHR miss cycles
system.cpu.icache.demand_mshr_miss_latency::total     55831500                       # number of demand (read+write) MSHR miss cycles
system.cpu.icache.overall_mshr_miss_latency::.cpu.inst     55831500                       # number of overall MSHR miss cycles
system.cpu.icache.overall_mshr_miss_latency::total     55831500                       # number of overall MSHR miss cycles
system.cpu.icache.demand_mshr_miss_rate::.cpu.inst     0.000080                       # mshr miss rate for demand accesses
system.cpu.icache.demand_mshr_miss_rate::total     0.000080                       # mshr miss rate for demand accesses
system.cpu.icache.overall_mshr_miss_rate::.cpu.inst     0.000080                       # mshr miss rate for overall accesses
system.cpu.icache.overall_mshr_miss_rate::total     0.000080                       # mshr miss rate for overall accesses
system.cpu.icache.demand_avg_mshr_miss_latency::.cpu.inst 67592.615012                       # average overall mshr miss latency
system.cpu.icache.demand_avg_mshr_miss_latency::total 67592.615012                       # average overall mshr miss latency
system.cpu.icache.overall_avg_mshr_miss_latency::.cpu.inst 67592.615012                       # average overall mshr miss latency
system.cpu.icache.overall_avg_mshr_miss_latency::total 67592.615012                       # average overall mshr miss latency
system.cpu.icache.replacements                    570                       # number of replacements
system.cpu.icache.ReadReq_hits::.cpu.inst     10278007                       # number of ReadReq hits
system.cpu.icache.ReadReq_hits::total        10278007                       # number of ReadReq hits
system.cpu.icache.ReadReq_misses::.cpu.inst          826                       # number of ReadReq misses
system.cpu.icache.ReadReq_misses::total           826                       # number of ReadReq misses
system.cpu.icache.ReadReq_miss_latency::.cpu.inst     56657500                       # number of ReadReq miss cycles
system.cpu.icache.ReadReq_miss_latency::total     56657500                       # number of ReadReq miss cycles
system.cpu.icache.ReadReq_accesses::.cpu.inst     10278833                       # number of ReadReq accesses(hits+misses)
system.cpu.icache.ReadReq_accesses::total     10278833                       # number of ReadReq accesses(hits+misses)
system.cpu.icache.ReadReq_miss_rate::.cpu.inst     0.000080                       # miss rate for ReadReq accesses
system.cpu.icache.ReadReq_miss_rate::total     0.000080                       # miss rate for ReadReq accesses
system.cpu.icache.ReadReq_avg_miss_latency::.cpu.inst 68592.615012                       # average ReadReq miss latency
system.cpu.icache.ReadReq_avg_miss_latency::total 68592.615012                       # average ReadReq miss latency
system.cpu.icache.ReadReq_mshr_misses::.cpu.inst          826                       # number of ReadReq MSHR misses
system.cpu.icache.ReadReq_mshr_misses::total          826                       # number of ReadReq MSHR misses
system.cpu.icache.ReadReq_mshr_miss_latency::.cpu.inst     55831500                       # number of ReadReq MSHR miss cycles
system.cpu.icache.ReadReq_mshr_miss_latency::total     55831500                       # number of ReadReq MSHR miss cycles
system.cpu.icache.ReadReq_mshr_miss_rate::.cpu.inst     0.000080                       # mshr miss rate for ReadReq accesses
system.cpu.icache.ReadReq_mshr_miss_rate::total     0.000080                       # mshr miss rate for ReadReq accesses
system.cpu.icache.ReadReq_avg_mshr_miss_latency::.cpu.inst 67592.615012                       # average ReadReq mshr miss latency
system.cpu.icache.ReadReq_avg_mshr_miss_latency::total 67592.615012                       # average ReadReq mshr miss latency
system.cpu.icache.power_state.pwrStateResidencyTicks::UNDEFINED  85360013000                       # Cumulative time (in ticks) in various power states
system.cpu.icache.tags.tagsinuse           249.332122                       # Cycle average of tags in use
system.cpu.icache.tags.total_refs            10278833                       # Total number of references to valid blocks.
system.cpu.icache.tags.sampled_refs               826                       # Sample count of references to valid blocks.
system.cpu.icache.tags.avg_refs          12444.107748                       # Average number of references to valid blocks.
system.cpu.icache.tags.warmup_cycle             87500                       # Cycle when the warmup percentage was hit.
system.cpu.icache.tags.occ_blocks::.cpu.inst   249.332122                       # Average occupied blocks per requestor
system.cpu.icache.tags.occ_percent::.cpu.inst     0.973954                       # Average percentage of cache occupancy
system.cpu.icache.tags.occ_percent::total     0.973954                       # Average percentage of cache occupancy
system.cpu.icache.tags.occ_task_id_blocks::1024          256                       # Occupied blocks per task id
system.cpu.icache.tags.age_task_id_blocks_1024::3          107                       # Occupied blocks per task id
system.cpu.icache.tags.age_task_id_blocks_1024::4          149                       # Occupied blocks per task id
system.cpu.icache.tags.occ_task_id_percent::1024            1                       # Percentage of cache occupancy per task id
system.cpu.icache.tags.tag_accesses          20558492                       # Number of tag accesses
system.cpu.icache.tags.data_accesses         20558492                       # Number of data accesses
system.cpu.icache.tags.power_state.pwrStateResidencyTicks::UNDEFINED  85360013000                       # Cumulative time (in ticks) in various power states
system.cpu.itb.instHits                             0                       # ITB inst hits
system.cpu.itb.instMisses                           0                       # ITB inst misses
system.cpu.itb.readHits                             0                       # DTB read hits
system.cpu.itb.readMisses                           0                       # DTB read misses
system.cpu.itb.writeHits                            0                       # DTB write hits
system.cpu.itb.writeMisses                          0                       # DTB write misses
system.cpu.itb.inserts                              0                       # Number of times an entry is inserted into the TLB
system.cpu.itb.flushTlb                             0                       # Number of times complete TLB was flushed
system.cpu.itb.flushTlbMva                          0                       # Number of times TLB was flushed by MVA
system.cpu.itb.flushTlbMvaAsid                      0                       # Number of times TLB was flushed by MVA & ASID
system.cpu.itb.flushTlbAsid                         0                       # Number of times TLB was flushed by ASID
system.cpu.itb.flushedEntries                       0                       # Number of entries that have been flushed from TLB
system.cpu.itb.alignFaults                          0                       # Number of TLB faults due to alignment restrictions
system.cpu.itb.prefetchFaults                       0                       # Number of TLB faults due to prefetch
system.cpu.itb.domainFaults                         0                       # Number of TLB faults due to domain restrictions
system.cpu.itb.permsFaults                          0                       # Number of TLB faults due to permissions restrictions
system.cpu.itb.readAccesses                         0                       # DTB read accesses
system.cpu.itb.writeAccesses                        0                       # DTB write accesses
system.cpu.itb.instAccesses                         0                       # ITB inst accesses
system.cpu.itb.hits                                 0                       # Total TLB (inst and data) hits
system.cpu.itb.misses                               0                       # Total TLB (inst and data) misses
system.cpu.itb.accesses                             0                       # Total TLB (inst and data) accesses
system.cpu.itb.stage2_mmu.stage2_tlb.instHits            0                       # ITB inst hits
system.cpu.itb.stage2_mmu.stage2_tlb.instMisses            0                       # ITB inst misses
system.cpu.itb.stage2_mmu.stage2_tlb.readHits            0                       # DTB read hits
system.cpu.itb.stage2_mmu.stage2_tlb.readMisses            0                       # DTB read misses
system.cpu.itb.stage2_mmu.stage2_tlb.writeHits            0                       # DTB write hits
system.cpu.itb.stage2_mmu.stage2_tlb.writeMisses            0                       # DTB write misses
system.cpu.itb.stage2_mmu.stage2_tlb.inserts            0                       # Number of times an entry is inserted into the TLB
system.cpu.itb.stage2_mmu.stage2_tlb.flushTlb            0                       # Number of times complete TLB was flushed
system.cpu.itb.stage2_mmu.stage2_tlb.flushTlbMva            0                       # Number of times TLB was flushed by MVA
system.cpu.itb.stage2_mmu.stage2_tlb.flushTlbMvaAsid            0                       # Number of times TLB was flushed by MVA & ASID
system.cpu.itb.stage2_mmu.stage2_tlb.flushTlbAsid            0                       # Number of times TLB was flushed by ASID
system.cpu.itb.stage2_mmu.stage2_tlb.flushedEntries            0                       # Number of entries that have been flushed from TLB
system.cpu.itb.stage2_mmu.stage2_tlb.alignFaults            0                       # Number of TLB faults due to alignment restrictions
system.cpu.itb.stage2_mmu.stage2_tlb.prefetchFaults            0                       # Number of TLB faults due to prefetch
system.cpu.itb.stage2_mmu.stage2_tlb.domainFaults            0                       # Number of TLB faults due to domain restrictions
system.cpu.itb.stage2_mmu.stage2_tlb.permsFaults            0                       # Number of TLB faults due to permissions restrictions
system.cpu.itb.stage2_mmu.stage2_tlb.readAccesses            0                       # DTB read accesses
system.cpu.itb.stage2_mmu.stage2_tlb.writeAccesses            0                       # DTB write accesses
system.cpu.itb.stage2_mmu.stage2_tlb.instAccesses            0                       # ITB inst accesses
system.cpu.itb.stage2_mmu.stage2_tlb.hits            0                       # Total TLB (inst and data) hits
system.cpu.itb.stage2_mmu.stage2_tlb.misses            0                       # Total TLB (inst and data) misses
system.cpu.itb.stage2_mmu.stage2_tlb.accesses            0                       # Total TLB (inst and data) accesses
system.cpu.itb.stage2_mmu.stage2_tlb.walker.walks            0                       # Table walker walks requested
system.cpu.itb.stage2_mmu.stage2_tlb.walker.requestOrigin_Requested::Data            0                       # Table walker requests started/completed, data/inst
system.cpu.itb.stage2_mmu.stage2_tlb.walker.requestOrigin_Requested::Inst            0                       # Table walker requests started/completed, data/inst
system.cpu.itb.stage2_mmu.stage2_tlb.walker.requestOrigin_Requested::total            0                       # Table walker requests started/completed, data/inst
system.cpu.itb.stage2_mmu.stage2_tlb.walker.requestOrigin_Completed::Data            0                       # Table walker requests started/completed, data/inst
system.cpu.itb.stage2_mmu.stage2_tlb.walker.requestOrigin_Completed::Inst            0                       # Table walker requests started/completed, data/inst
system.cpu.itb.stage2_mmu.stage2_tlb.walker.requestOrigin_Completed::total            0                       # Table walker requests started/completed, data/inst
system.cpu.itb.stage2_mmu.stage2_tlb.walker.requestOrigin::total            0                       # Table walker requests started/completed, data/inst
system.cpu.itb.stage2_mmu.stage2_tlb.walker.power_state.pwrStateResidencyTicks::UNDEFINED  85360013000                       # Cumulative time (in ticks) in various power states
system.cpu.itb.walker.walks                         0                       # Table walker walks requested
system.cpu.itb.walker.requestOrigin_Requested::Data            0                       # Table walker requests started/completed, data/inst
system.cpu.itb.walker.requestOrigin_Requested::Inst            0                       # Table walker requests started/completed, data/inst
system.cpu.itb.walker.requestOrigin_Requested::total            0                       # Table walker requests started/completed, data/inst
system.cpu.itb.walker.requestOrigin_Completed::Data            0                       # Table walker requests started/completed, data/inst
system.cpu.itb.walker.requestOrigin_Completed::Inst            0                       # Table walker requests started/completed, data/inst
system.cpu.itb.walker.requestOrigin_Completed::total            0                       # Table walker requests started/completed, data/inst
system.cpu.itb.walker.requestOrigin::total            0                       # Table walker requests started/completed, data/inst
system.cpu.itb.walker.power_state.pwrStateResidencyTicks::UNDEFINED  85360013000                       # Cumulative time (in ticks) in various power states
system.cpu.power_state.pwrStateResidencyTicks::ON  85360013000                       # Cumulative time (in ticks) in various power states
system.cpu.thread0.numInsts                 100000001                       # Number of Instructions committed
system.cpu.thread0.numOps                   100196356                       # Number of Ops committed
system.cpu.thread0.numMemRefs                       0                       # Number of Memory References
system.cpu_clk_domain.clock                       500                       # Clock period in ticks
system.cpu_voltage_domain.voltage                   1                       # Voltage in Volts
system.l2.demand_hits::.cpu.inst                  142                       # number of demand (read+write) hits
system.l2.demand_hits::.cpu.data               673972                       # number of demand (read+write) hits
system.l2.demand_hits::total                   674114                       # number of demand (read+write) hits
system.l2.overall_hits::.cpu.inst                 142                       # number of overall hits
system.l2.overall_hits::.cpu.data              673972                       # number of overall hits
system.l2.overall_hits::total                  674114                       # number of overall hits
system.l2.demand_misses::.cpu.inst                684                       # number of demand (read+write) misses
system.l2.demand_misses::.cpu.data             201178                       # number of demand (read+write) misses
system.l2.demand_misses::total                 201862                       # number of demand (read+write) misses
system.l2.overall_misses::.cpu.inst               684                       # number of overall misses
system.l2.overall_misses::.cpu.data            201178                       # number of overall misses
system.l2.overall_misses::total                201862                       # number of overall misses
system.l2.demand_miss_latency::.cpu.inst     53081000                       # number of demand (read+write) miss cycles
system.l2.demand_miss_latency::.cpu.data  16980021000                       # number of demand (read+write) miss cycles
system.l2.demand_miss_latency::total      17033102000                       # number of demand (read+write) miss cycles
system.l2.overall_miss_latency::.cpu.inst     53081000                       # number of overall miss cycles
system.l2.overall_miss_latency::.cpu.data  16980021000                       # number of overall miss cycles
system.l2.overall_miss_latency::total     17033102000                       # number of overall miss cycles
system.l2.demand_accesses::.cpu.inst              826                       # number of demand (read+write) accesses
system.l2.demand_accesses::.cpu.data           875150                       # number of demand (read+write) accesses
system.l2.demand_accesses::total               875976                       # number of demand (read+write) accesses
system.l2.overall_accesses::.cpu.inst             826                       # number of overall (read+write) accesses
system.l2.overall_accesses::.cpu.data          875150                       # number of overall (read+write) accesses
system.l2.overall_accesses::total              875976                       # number of overall (read+write) accesses
system.l2.demand_miss_rate::.cpu.inst        0.828087                       # miss rate for demand accesses
system.l2.demand_miss_rate::.cpu.data        0.229878                       # miss rate for demand accesses
system.l2.demand_miss_rate::total            0.230442                       # miss rate for demand accesses
system.l2.overall_miss_rate::.cpu.inst       0.828087                       # miss rate for overall accesses
system.l2.overall_miss_rate::.cpu.data       0.229878                       # miss rate for overall accesses
system.l2.overall_miss_rate::total           0.230442                       # miss rate for overall accesses
system.l2.demand_avg_miss_latency::.cpu.inst 77603.801170                       # average overall miss latency
system.l2.demand_avg_miss_latency::.cpu.data 84402.971498                       # average overall miss latency
system.l2.demand_avg_miss_latency::total 84379.932825                       # average overall miss latency
system.l2.overall_avg_miss_latency::.cpu.inst 77603.801170                       # average overall miss latency
system.l2.overall_avg_miss_latency::.cpu.data 84402.971498                       # average overall miss latency
system.l2.overall_avg_miss_latency::total 84379.932825                       # average overall miss latency
system.l2.blocked_cycles::no_mshrs                  0                       # number of cycles access was blocked
system.l2.blocked_cycles::no_targets                0                       # number of cycles access was blocked
system.l2.blocked::no_mshrs                         0                       # number of cycles access was blocked
system.l2.blocked::no_targets                       0                       # number of cycles access was blocked
system.l2.avg_blocked_cycles::no_mshrs            nan                       # average number of cycles each access was blocked
system.l2.avg_blocked_cycles::no_targets          nan                       # average number of cycles each access was blocked
system.l2.writebacks::.writebacks              111106                       # number of writebacks
system.l2.writebacks::total                    111106                       # number of writebacks
system.l2.demand_mshr_hits::.cpu.data               6                       # number of demand (read+write) MSHR hits
system.l2.demand_mshr_hits::total                   6                       # number of demand (read+write) MSHR hits
system.l2.overall_mshr_hits::.cpu.data              6                       # number of overall MSHR hits
system.l2.overall_mshr_hits::total                  6                       # number of overall MSHR hits
system.l2.demand_mshr_misses::.cpu.inst           684                       # number of demand (read+write) MSHR misses
system.l2.demand_mshr_misses::.cpu.data        201172                       # number of demand (read+write) MSHR misses
system.l2.demand_mshr_misses::total            201856                       # number of demand (read+write) MSHR misses
system.l2.overall_mshr_misses::.cpu.inst          684                       # number of overall MSHR misses
system.l2.overall_mshr_misses::.cpu.data       201172                       # number of overall MSHR misses
system.l2.overall_mshr_misses::total           201856                       # number of overall MSHR misses
system.l2.demand_mshr_miss_latency::.cpu.inst     46241000                       # number of demand (read+write) MSHR miss cycles
system.l2.demand_mshr_miss_latency::.cpu.data  14967773500                       # number of demand (read+write) MSHR miss cycles
system.l2.demand_mshr_miss_latency::total  15014014500                       # number of demand (read+write) MSHR miss cycles
system.l2.overall_mshr_miss_latency::.cpu.inst     46241000                       # number of overall MSHR miss cycles
system.l2.overall_mshr_miss_latency::.cpu.data  14967773500                       # number of overall MSHR miss cycles
system.l2.overall_mshr_miss_latency::total  15014014500                       # number of overall MSHR miss cycles
system.l2.demand_mshr_miss_rate::.cpu.inst     0.828087                       # mshr miss rate for demand accesses
system.l2.demand_mshr_miss_rate::.cpu.data     0.229871                       # mshr miss rate for demand accesses
system.l2.demand_mshr_miss_rate::total       0.230436                       # mshr miss rate for demand accesses
system.l2.overall_mshr_miss_rate::.cpu.inst     0.828087                       # mshr miss rate for overall accesses
system.l2.overall_mshr_miss_rate::.cpu.data     0.229871                       # mshr miss rate for overall accesses
system.l2.overall_mshr_miss_rate::total      0.230436                       # mshr miss rate for overall accesses
system.l2.demand_avg_mshr_miss_latency::.cpu.inst 67603.801170                       # average overall mshr miss latency
system.l2.demand_avg_mshr_miss_latency::.cpu.data 74402.866701                       # average overall mshr miss latency
system.l2.demand_avg_mshr_miss_latency::total 74379.827699                       # average overall mshr miss latency
system.l2.overall_avg_mshr_miss_latency::.cpu.inst 67603.801170                       # average overall mshr miss latency
system.l2.overall_avg_mshr_miss_latency::.cpu.data 74402.866701                       # average overall mshr miss latency
system.l2.overall_avg_mshr_miss_latency::total 74379.827699                       # average overall mshr miss latency
system.l2.replacements                         169336                       # number of replacements
system.l2.WritebackDirty_hits::.writebacks       795958                       # number of WritebackDirty hits
system.l2.WritebackDirty_hits::total           795958                       # number of WritebackDirty hits
system.l2.WritebackDirty_accesses::.writebacks       795958                       # number of WritebackDirty accesses(hits+misses)
system.l2.WritebackDirty_accesses::total       795958                       # number of WritebackDirty accesses(hits+misses)
system.l2.WritebackClean_hits::.writebacks          555                       # number of WritebackClean hits
system.l2.WritebackClean_hits::total              555                       # number of WritebackClean hits
system.l2.WritebackClean_accesses::.writebacks          555                       # number of WritebackClean accesses(hits+misses)
system.l2.WritebackClean_accesses::total          555                       # number of WritebackClean accesses(hits+misses)
system.l2.ReadExReq_hits::.cpu.data            205123                       # number of ReadExReq hits
system.l2.ReadExReq_hits::total                205123                       # number of ReadExReq hits
system.l2.ReadExReq_misses::.cpu.data          136084                       # number of ReadExReq misses
system.l2.ReadExReq_misses::total              136084                       # number of ReadExReq misses
system.l2.ReadExReq_miss_latency::.cpu.data  11779950500                       # number of ReadExReq miss cycles
system.l2.ReadExReq_miss_latency::total   11779950500                       # number of ReadExReq miss cycles
system.l2.ReadExReq_accesses::.cpu.data        341207                       # number of ReadExReq accesses(hits+misses)
system.l2.ReadExReq_accesses::total            341207                       # number of ReadExReq accesses(hits+misses)
system.l2.ReadExReq_miss_rate::.cpu.data     0.398831                       # miss rate for ReadExReq accesses
system.l2.ReadExReq_miss_rate::total         0.398831                       # miss rate for ReadExReq accesses
system.l2.ReadExReq_avg_miss_latency::.cpu.data 86563.817201                       # average ReadExReq miss latency
system.l2.ReadExReq_avg_miss_latency::total 86563.817201                       # average ReadExReq miss latency
system.l2.ReadExReq_mshr_misses::.cpu.data       136084                       # number of ReadExReq MSHR misses
system.l2.ReadExReq_mshr_misses::total         136084                       # number of ReadExReq MSHR misses
system.l2.ReadExReq_mshr_miss_latency::.cpu.data  10419110500                       # number of ReadExReq MSHR miss cycles
system.l2.ReadExReq_mshr_miss_latency::total  10419110500                       # number of ReadExReq MSHR miss cycles
system.l2.ReadExReq_mshr_miss_rate::.cpu.data     0.398831                       # mshr miss rate for ReadExReq accesses
system.l2.ReadExReq_mshr_miss_rate::total     0.398831                       # mshr miss rate for ReadExReq accesses
system.l2.ReadExReq_avg_mshr_miss_latency::.cpu.data 76563.817201                       # average ReadExReq mshr miss latency
system.l2.ReadExReq_avg_mshr_miss_latency::total 76563.817201                       # average ReadExReq mshr miss latency
system.l2.ReadCleanReq_hits::.cpu.inst            142                       # number of ReadCleanReq hits
system.l2.ReadCleanReq_hits::total                142                       # number of ReadCleanReq hits
system.l2.ReadCleanReq_misses::.cpu.inst          684                       # number of ReadCleanReq misses
system.l2.ReadCleanReq_misses::total              684                       # number of ReadCleanReq misses
system.l2.ReadCleanReq_miss_latency::.cpu.inst     53081000                       # number of ReadCleanReq miss cycles
system.l2.ReadCleanReq_miss_latency::total     53081000                       # number of ReadCleanReq miss cycles
system.l2.ReadCleanReq_accesses::.cpu.inst          826                       # number of ReadCleanReq accesses(hits+misses)
system.l2.ReadCleanReq_accesses::total            826                       # number of ReadCleanReq accesses(hits+misses)
system.l2.ReadCleanReq_miss_rate::.cpu.inst     0.828087                       # miss rate for ReadCleanReq accesses
system.l2.ReadCleanReq_miss_rate::total      0.828087                       # miss rate for ReadCleanReq accesses
system.l2.ReadCleanReq_avg_miss_latency::.cpu.inst 77603.801170                       # average ReadCleanReq miss latency
system.l2.ReadCleanReq_avg_miss_latency::total 77603.801170                       # average ReadCleanReq miss latency
system.l2.ReadCleanReq_mshr_misses::.cpu.inst          684                       # number of ReadCleanReq MSHR misses
system.l2.ReadCleanReq_mshr_misses::total          684                       # number of ReadCleanReq MSHR misses
system.l2.ReadCleanReq_mshr_miss_latency::.cpu.inst     46241000                       # number of ReadCleanReq MSHR miss cycles
system.l2.ReadCleanReq_mshr_miss_latency::total     46241000                       # number of ReadCleanReq MSHR miss cycles
system.l2.ReadCleanReq_mshr_miss_rate::.cpu.inst     0.828087                       # mshr miss rate for ReadCleanReq accesses
system.l2.ReadCleanReq_mshr_miss_rate::total     0.828087                       # mshr miss rate for ReadCleanReq accesses
system.l2.ReadCleanReq_avg_mshr_miss_latency::.cpu.inst 67603.801170                       # average ReadCleanReq mshr miss latency
system.l2.ReadCleanReq_avg_mshr_miss_latency::total 67603.801170                       # average ReadCleanReq mshr miss latency
system.l2.ReadSharedReq_hits::.cpu.data        468849                       # number of ReadSharedReq hits
system.l2.ReadSharedReq_hits::total            468849                       # number of ReadSharedReq hits
system.l2.ReadSharedReq_misses::.cpu.data        65094                       # number of ReadSharedReq misses
system.l2.ReadSharedReq_misses::total           65094                       # number of ReadSharedReq misses
system.l2.ReadSharedReq_miss_latency::.cpu.data   5200070500                       # number of ReadSharedReq miss cycles
system.l2.ReadSharedReq_miss_latency::total   5200070500                       # number of ReadSharedReq miss cycles
system.l2.ReadSharedReq_accesses::.cpu.data       533943                       # number of ReadSharedReq accesses(hits+misses)
system.l2.ReadSharedReq_accesses::total        533943                       # number of ReadSharedReq accesses(hits+misses)
system.l2.ReadSharedReq_miss_rate::.cpu.data     0.121912                       # miss rate for ReadSharedReq accesses
system.l2.ReadSharedReq_miss_rate::total     0.121912                       # miss rate for ReadSharedReq accesses
system.l2.ReadSharedReq_avg_miss_latency::.cpu.data 79885.557809                       # average ReadSharedReq miss latency
system.l2.ReadSharedReq_avg_miss_latency::total 79885.557809                       # average ReadSharedReq miss latency
system.l2.ReadSharedReq_mshr_hits::.cpu.data            6                       # number of ReadSharedReq MSHR hits
system.l2.ReadSharedReq_mshr_hits::total            6                       # number of ReadSharedReq MSHR hits
system.l2.ReadSharedReq_mshr_misses::.cpu.data        65088                       # number of ReadSharedReq MSHR misses
system.l2.ReadSharedReq_mshr_misses::total        65088                       # number of ReadSharedReq MSHR misses
system.l2.ReadSharedReq_mshr_miss_latency::.cpu.data   4548663000                       # number of ReadSharedReq MSHR miss cycles
system.l2.ReadSharedReq_mshr_miss_latency::total   4548663000                       # number of ReadSharedReq MSHR miss cycles
system.l2.ReadSharedReq_mshr_miss_rate::.cpu.data     0.121901                       # mshr miss rate for ReadSharedReq accesses
system.l2.ReadSharedReq_mshr_miss_rate::total     0.121901                       # mshr miss rate for ReadSharedReq accesses
system.l2.ReadSharedReq_avg_mshr_miss_latency::.cpu.data 69884.817478                       # average ReadSharedReq mshr miss latency
system.l2.ReadSharedReq_avg_mshr_miss_latency::total 69884.817478                       # average ReadSharedReq mshr miss latency
system.l2.power_state.pwrStateResidencyTicks::UNDEFINED  85360013000                       # Cumulative time (in ticks) in various power states
system.l2.tags.tagsinuse                 31911.620058                       # Cycle average of tags in use
system.l2.tags.total_refs                     1750796                       # Total number of references to valid blocks.
system.l2.tags.sampled_refs                    202104                       # Sample count of references to valid blocks.
system.l2.tags.avg_refs                      8.662847                       # Average number of references to valid blocks.
system.l2.tags.warmup_cycle                     77000                       # Cycle when the warmup percentage was hit.
system.l2.tags.occ_blocks::.writebacks      74.708058                       # Average occupied blocks per requestor
system.l2.tags.occ_blocks::.cpu.inst        93.769096                       # Average occupied blocks per requestor
system.l2.tags.occ_blocks::.cpu.data     31743.142903                       # Average occupied blocks per requestor
system.l2.tags.occ_percent::.writebacks      0.002280                       # Average percentage of cache occupancy
system.l2.tags.occ_percent::.cpu.inst        0.002862                       # Average percentage of cache occupancy
system.l2.tags.occ_percent::.cpu.data        0.968724                       # Average percentage of cache occupancy
system.l2.tags.occ_percent::total            0.973865                       # Average percentage of cache occupancy
system.l2.tags.occ_task_id_blocks::1024         32768                       # Occupied blocks per task id
system.l2.tags.age_task_id_blocks_1024::1          137                       # Occupied blocks per task id
system.l2.tags.age_task_id_blocks_1024::2         1168                       # Occupied blocks per task id
system.l2.tags.age_task_id_blocks_1024::3        15591                       # Occupied blocks per task id
system.l2.tags.age_task_id_blocks_1024::4        15872                       # Occupied blocks per task id
system.l2.tags.occ_task_id_percent::1024            1                       # Percentage of cache occupancy per task id
system.l2.tags.tag_accesses                  14208520                       # Number of tag accesses
system.l2.tags.data_accesses                 14208520                       # Number of data accesses
system.l2.tags.power_state.pwrStateResidencyTicks::UNDEFINED  85360013000                       # Cumulative time (in ticks) in various power states
system.mem_ctrls.avgPriority_.writebacks::samples    111106.00                       # Average QoS priority value for accepted requests
system.mem_ctrls.avgPriority_.cpu.inst::samples       684.00                       # Average QoS priority value for accepted requests
system.mem_ctrls.avgPriority_.cpu.data::samples    201135.00                       # Average QoS priority value for accepted requests
system.mem_ctrls.priorityMinLatency      0.000000018750                       # per QoS priority minimum request to response latency (s)
system.mem_ctrls.priorityMaxLatency      0.003808460500                       # per QoS priority maximum request to response latency (s)
system.mem_ctrls.numReadWriteTurnArounds         6651                       # Number of turnarounds from READ to WRITE
system.mem_ctrls.numWriteReadTurnArounds         6651                       # Number of turnarounds from WRITE to READ
system.mem_ctrls.numStayReadState              526420                       # Number of times bus staying in READ state
system.mem_ctrls.numStayWriteState             104558                       # Number of times bus staying in WRITE state
system.mem_ctrls.readReqs                      201856                       # Number of read requests accepted
system.mem_ctrls.writeReqs                     111106                       # Number of write requests accepted
system.mem_ctrls.readBursts                    201856                       # Number of controller read bursts, including those serviced by the write queue
system.mem_ctrls.writeBursts                   111106                       # Number of controller write bursts, including those merged in the write queue
system.mem_ctrls.servicedByWrQ                     37                       # Number of controller read bursts serviced by the write queue
system.mem_ctrls.mergedWrBursts                     0                       # Number of controller write bursts merged with an existing one
system.mem_ctrls.neitherReadNorWriteReqs            0                       # Number of requests that are neither read nor write
system.mem_ctrls.avgRdQLen                       1.08                       # Average read queue length when enqueuing
system.mem_ctrls.avgWrQLen                      24.76                       # Average write queue length when enqueuing
system.mem_ctrls.numRdRetry                         0                       # Number of times read queue was full causing retry
system.mem_ctrls.numWrRetry                         0                       # Number of times write queue was full causing retry
system.mem_ctrls.readPktSize::0                     0                       # Read request sizes (log2)
system.mem_ctrls.readPktSize::1                     0                       # Read request sizes (log2)
system.mem_ctrls.readPktSize::2                     0                       # Read request sizes (log2)
system.mem_ctrls.readPktSize::3                     0                       # Read request sizes (log2)
system.mem_ctrls.readPktSize::4                     0                       # Read request sizes (log2)
system.mem_ctrls.readPktSize::5                     0                       # Read request sizes (log2)
system.mem_ctrls.readPktSize::6                201856                       # Read request sizes (log2)
system.mem_ctrls.writePktSize::0                    0                       # Write request sizes (log2)
system.mem_ctrls.writePktSize::1                    0                       # Write request sizes (log2)
system.mem_ctrls.writePktSize::2                    0                       # Write request sizes (log2)
system.mem_ctrls.writePktSize::3                    0                       # Write request sizes (log2)
system.mem_ctrls.writePktSize::4                    0                       # Write request sizes (log2)
system.mem_ctrls.writePktSize::5                    0                       # Write request sizes (log2)
system.mem_ctrls.writePktSize::6               111106                       # Write request sizes (log2)
system.mem_ctrls.rdQLenPdf::0                  140144                       # What read queue length does an incoming req see
system.mem_ctrls.rdQLenPdf::1                   59265                       # What read queue length does an incoming req see
system.mem_ctrls.rdQLenPdf::2                    2106                       # What read queue length does an incoming req see
system.mem_ctrls.rdQLenPdf::3                     303                       # What read queue length does an incoming req see
system.mem_ctrls.rdQLenPdf::4                       1                       # What read queue length does an incoming req see
system.mem_ctrls.rdQLenPdf::5                       0                       # What read queue length does an incoming req see
system.mem_ctrls.rdQLenPdf::6                       0                       # What read queue length does an incoming req see
system.mem_ctrls.rdQLenPdf::7                       0                       # What read queue length does an incoming req see
system.mem_ctrls.rdQLenPdf::8                       0                       # What read queue length does an incoming req see
system.mem_ctrls.rdQLenPdf::9                       0                       # What read queue length does an incoming req see
system.mem_ctrls.rdQLenPdf::10                      0                       # What read queue length does an incoming req see
system.mem_ctrls.rdQLenPdf::11                      0                       # What read queue length does an incoming req see
[...]
system.mem_ctrls.dram.bw_write::.writebacks     83303455                       # Write bandwidth from this memory (bytes/s)
system.mem_ctrls.dram.bw_write::total        83303455                       # Write bandwidth from this memory (bytes/s)
system.mem_ctrls.dram.bw_total::.writebacks     83303455                       # Total bandwidth to/from this memory (bytes/s)
system.mem_ctrls.dram.bw_total::.cpu.inst       512840                       # Total bandwidth to/from this memory (bytes/s)
system.mem_ctrls.dram.bw_total::.cpu.data    150831842                       # Total bandwidth to/from this memory (bytes/s)
system.mem_ctrls.dram.bw_total::total       234648137                       # Total bandwidth to/from this memory (bytes/s)
system.mem_ctrls.dram.readBursts               201819                       # Number of DRAM read bursts
system.mem_ctrls.dram.writeBursts              111084                       # Number of DRAM write bursts
system.mem_ctrls.dram.perBankRdBursts::0        12925                       # Per bank write bursts
system.mem_ctrls.dram.perBankRdBursts::1        12870                       # Per bank write bursts
system.mem_ctrls.dram.perBankRdBursts::2        12780                       # Per bank write bursts
system.mem_ctrls.dram.perBankRdBursts::3        12538                       # Per bank write bursts
system.mem_ctrls.dram.perBankRdBursts::4        12599                       # Per bank write bursts
system.mem_ctrls.dram.perBankRdBursts::5        12355                       # Per bank write bursts
system.mem_ctrls.dram.perBankRdBursts::6        12584                       # Per bank write bursts
system.mem_ctrls.dram.perBankRdBursts::7        12369                       # Per bank write bursts
system.mem_ctrls.dram.perBankRdBursts::8        12463                       # Per bank write bursts
system.mem_ctrls.dram.perBankRdBursts::9        12130                       # Per bank write bursts
system.mem_ctrls.dram.perBankRdBursts::10        12590                       # Per bank write bursts
system.mem_ctrls.dram.perBankRdBursts::11        12635                       # Per bank write bursts
system.mem_ctrls.dram.perBankRdBursts::12        12781                       # Per bank write bursts
system.mem_ctrls.dram.perBankRdBursts::13        12738                       # Per bank write bursts
system.mem_ctrls.dram.perBankRdBursts::14        12790                       # Per bank write bursts
system.mem_ctrls.dram.perBankRdBursts::15        12672                       # Per bank write bursts
system.mem_ctrls.dram.perBankWrBursts::0         7081                       # Per bank write bursts
system.mem_ctrls.dram.perBankWrBursts::1         7146                       # Per bank write bursts
system.mem_ctrls.dram.perBankWrBursts::2         7068                       # Per bank write bursts
system.mem_ctrls.dram.perBankWrBursts::3         6951                       # Per bank write bursts
system.mem_ctrls.dram.perBankWrBursts::4         7019                       # Per bank write bursts
system.mem_ctrls.dram.perBankWrBursts::5         6935                       # Per bank write bursts
system.mem_ctrls.dram.perBankWrBursts::6         7116                       # Per bank write bursts
system.mem_ctrls.dram.perBankWrBursts::7         6841                       # Per bank write bursts
system.mem_ctrls.dram.perBankWrBursts::8         6788                       # Per bank write bursts
system.mem_ctrls.dram.perBankWrBursts::9         6483                       # Per bank write bursts
system.mem_ctrls.dram.perBankWrBursts::10         6880                       # Per bank write bursts
system.mem_ctrls.dram.perBankWrBursts::11         6909                       # Per bank write bursts
system.mem_ctrls.dram.perBankWrBursts::12         7005                       # Per bank write bursts
system.mem_ctrls.dram.perBankWrBursts::13         6935                       # Per bank write bursts
system.mem_ctrls.dram.perBankWrBursts::14         7003                       # Per bank write bursts
system.mem_ctrls.dram.perBankWrBursts::15         6924                       # Per bank write bursts
system.mem_ctrls.dram.totQLat              2909070750                       # Total ticks spent queuing
system.mem_ctrls.dram.totBusLat            1009095000                       # Total ticks spent in databus transfers
system.mem_ctrls.dram.totMemAccLat         6693177000                       # Total ticks spent from burst creation until serviced by the DRAM
system.mem_ctrls.dram.avgQLat                14414.26                       # Average queueing delay per DRAM burst
system.mem_ctrls.dram.avgBusLat               5000.00                       # Average bus latency per DRAM burst
system.mem_ctrls.dram.avgMemAccLat           33164.26                       # Average memory access latency per DRAM burst
system.mem_ctrls.dram.readRowHits              138699                       # Number of row buffer hits during reads
system.mem_ctrls.dram.writeRowHits              69987                       # Number of row buffer hits during writes
system.mem_ctrls.dram.readRowHitRate            68.72                       # Row buffer hit rate for reads
system.mem_ctrls.dram.writeRowHitRate           63.00                       # Row buffer hit rate for writes
system.mem_ctrls.dram.bytesPerActivate::samples       104217                       # Bytes accessed per row activation
system.mem_ctrls.dram.bytesPerActivate::mean   192.154754                       # Bytes accessed per row activation
system.mem_ctrls.dram.bytesPerActivate::gmean   112.100620                       # Bytes accessed per row activation
system.mem_ctrls.dram.bytesPerActivate::stdev   256.710260                       # Bytes accessed per row activation
system.mem_ctrls.dram.bytesPerActivate::0-127        68442     65.67%     65.67% # Bytes accessed per row activation
system.mem_ctrls.dram.bytesPerActivate::128-255        14509     13.92%     79.59% # Bytes accessed per row activation
system.mem_ctrls.dram.bytesPerActivate::256-383         2500      2.40%     81.99% # Bytes accessed per row activation
system.mem_ctrls.dram.bytesPerActivate::384-511         1468      1.41%     83.40% # Bytes accessed per row activation
system.mem_ctrls.dram.bytesPerActivate::512-639        10045      9.64%     93.04% # Bytes accessed per row activation
system.mem_ctrls.dram.bytesPerActivate::640-767          621      0.60%     93.64% # Bytes accessed per row activation
system.mem_ctrls.dram.bytesPerActivate::768-895          462      0.44%     94.08% # Bytes accessed per row activation
system.mem_ctrls.dram.bytesPerActivate::896-1023          468      0.45%     94.53% # Bytes accessed per row activation
system.mem_ctrls.dram.bytesPerActivate::1024-1151         5702      5.47%    100.00% # Bytes accessed per row activation
system.mem_ctrls.dram.bytesPerActivate::total       104217                       # Bytes accessed per row activation
system.mem_ctrls.dram.bytesRead              12916416                       # Total number of bytes read from DRAM
system.mem_ctrls.dram.bytesWritten            7109376                       # Total number of bytes written to DRAM
system.mem_ctrls.dram.avgRdBW              151.316940                       # Average DRAM read bandwidth in MiBytes/s
system.mem_ctrls.dram.avgWrBW               83.286960                       # Average DRAM write bandwidth in MiBytes/s
system.mem_ctrls.dram.peakBW                 12800.00                       # Theoretical peak bandwidth in MiByte/s
system.mem_ctrls.dram.busUtil                    1.83                       # Data bus utilization in percentage
system.mem_ctrls.dram.busUtilRead                1.18                       # Data bus utilization in percentage for reads
system.mem_ctrls.dram.busUtilWrite               0.65                       # Data bus utilization in percentage for writes
system.mem_ctrls.dram.pageHitRate               66.69                       # Row buffer hit rate, read and write combined
system.mem_ctrls.dram.power_state.pwrStateResidencyTicks::UNDEFINED  85360013000                       # Cumulative time (in ticks) in various power states
system.mem_ctrls.dram.rank0.actEnergy       375221280                       # Energy for activate commands per rank (pJ)
system.mem_ctrls.dram.rank0.preEnergy       199434840                       # Energy for precharge commands per rank (pJ)
system.mem_ctrls.dram.rank0.readEnergy      721282800                       # Energy for read commands per rank (pJ)
system.mem_ctrls.dram.rank0.writeEnergy     293139540                       # Energy for write commands per rank (pJ)
system.mem_ctrls.dram.rank0.refreshEnergy 6737683680.000001                       # Energy for refresh commands per rank (pJ)
system.mem_ctrls.dram.rank0.actBackEnergy  22236051120                       # Energy for active background per rank (pJ)
system.mem_ctrls.dram.rank0.preBackEnergy  14053149600                       # Energy for precharge background per rank (pJ)
system.mem_ctrls.dram.rank0.actPowerDownEnergy            0                       # Energy for active power-down per rank (pJ)
system.mem_ctrls.dram.rank0.prePowerDownEnergy            0                       # Energy for precharge power-down per rank (pJ)
system.mem_ctrls.dram.rank0.selfRefreshEnergy            0                       # Energy for self refresh per rank (pJ)
system.mem_ctrls.dram.rank0.totalEnergy   44615962860                       # Total energy per rank (pJ)
system.mem_ctrls.dram.rank0.averagePower   522.679898                       # Core power per rank (mW)
system.mem_ctrls.dram.rank0.totalIdleTime            0                       # Total Idle time Per DRAM Rank
system.mem_ctrls.dram.rank0.pwrStateTime::IDLE  36307626250                       # Time in different power states
system.mem_ctrls.dram.rank0.pwrStateTime::REF   2850120000                       # Time in different power states
system.mem_ctrls.dram.rank0.pwrStateTime::SREF            0                       # Time in different power states
system.mem_ctrls.dram.rank0.pwrStateTime::PRE_PDN            0                       # Time in different power states
system.mem_ctrls.dram.rank0.pwrStateTime::ACT  46202266750                       # Time in different power states
system.mem_ctrls.dram.rank0.pwrStateTime::ACT_PDN            0                       # Time in different power states
system.mem_ctrls.dram.rank1.actEnergy       368888100                       # Energy for activate commands per rank (pJ)
system.mem_ctrls.dram.rank1.preEnergy       196068675                       # Energy for precharge commands per rank (pJ)
system.mem_ctrls.dram.rank1.readEnergy      719704860                       # Energy for read commands per rank (pJ)
system.mem_ctrls.dram.rank1.writeEnergy     286718940                       # Energy for write commands per rank (pJ)
system.mem_ctrls.dram.rank1.refreshEnergy 6737683680.000001                       # Energy for refresh commands per rank (pJ)
system.mem_ctrls.dram.rank1.actBackEnergy  21918667140                       # Energy for active background per rank (pJ)
system.mem_ctrls.dram.rank1.preBackEnergy  14320420320                       # Energy for precharge background per rank (pJ)
system.mem_ctrls.dram.rank1.actPowerDownEnergy            0                       # Energy for active power-down per rank (pJ)
system.mem_ctrls.dram.rank1.prePowerDownEnergy            0                       # Energy for precharge power-down per rank (pJ)
system.mem_ctrls.dram.rank1.selfRefreshEnergy            0                       # Energy for self refresh per rank (pJ)
system.mem_ctrls.dram.rank1.totalEnergy   44548151715                       # Total energy per rank (pJ)
system.mem_ctrls.dram.rank1.averagePower   521.885484                       # Core power per rank (mW)
system.mem_ctrls.dram.rank1.totalIdleTime            0                       # Total Idle time Per DRAM Rank
system.mem_ctrls.dram.rank1.pwrStateTime::IDLE  37006000500                       # Time in different power states
system.mem_ctrls.dram.rank1.pwrStateTime::REF   2850120000                       # Time in different power states
system.mem_ctrls.dram.rank1.pwrStateTime::SREF            0                       # Time in different power states
system.mem_ctrls.dram.rank1.pwrStateTime::PRE_PDN            0                       # Time in different power states
system.mem_ctrls.dram.rank1.pwrStateTime::ACT  45503892500                       # Time in different power states
system.mem_ctrls.dram.rank1.pwrStateTime::ACT_PDN            0                       # Time in different power states
system.mem_ctrls.power_state.pwrStateResidencyTicks::UNDEFINED  85360013000                       # Cumulative time (in ticks) in various power states
system.membus.trans_dist::ReadResp              65772                       # Transaction distribution
system.membus.trans_dist::WritebackDirty       111106                       # Transaction distribution
system.membus.trans_dist::CleanEvict            57828                       # Transaction distribution
system.membus.trans_dist::ReadExReq            136084                       # Transaction distribution
system.membus.trans_dist::ReadExResp           136084                       # Transaction distribution
system.membus.trans_dist::ReadSharedReq         65772                       # Transaction distribution
system.membus.pkt_count_system.l2.mem_side_port::system.mem_ctrls.port       572646                       # Packet count per connected requestor and responder (bytes)
system.membus.pkt_count::total                 572646                       # Packet count per connected requestor and responder (bytes)
system.membus.pkt_size_system.l2.mem_side_port::system.mem_ctrls.port     20029568                       # Cumulative packet size per connected requestor and responder (bytes)
system.membus.pkt_size::total                20029568                       # Cumulative packet size per connected requestor and responder (bytes)
system.membus.snoops                                0                       # Total snoops (count)
system.membus.snoopTraffic                          0                       # Total snoop traffic (bytes)
system.membus.snoop_fanout::samples            201856                       # Request fanout histogram
system.membus.snoop_fanout::mean                    0                       # Request fanout histogram
system.membus.snoop_fanout::stdev                   0                       # Request fanout histogram
system.membus.snoop_fanout::underflows              0      0.00%      0.00% # Request fanout histogram
system.membus.snoop_fanout::0                  201856    100.00%    100.00% # Request fanout histogram
system.membus.snoop_fanout::1                       0      0.00%    100.00% # Request fanout histogram
system.membus.snoop_fanout::overflows               0      0.00%    100.00% # Request fanout histogram
system.membus.snoop_fanout::min_value               0                       # Request fanout histogram
system.membus.snoop_fanout::max_value               0                       # Request fanout histogram
system.membus.snoop_fanout::total              201856                       # Request fanout histogram
system.membus.power_state.pwrStateResidencyTicks::UNDEFINED  85360013000                       # Cumulative time (in ticks) in various power states
system.membus.reqLayer0.occupancy           852985000                       # Layer occupancy (ticks)
system.membus.reqLayer0.utilization               1.0                       # Layer utilization (%)
system.membus.respLayer1.occupancy         1087036500                       # Layer occupancy (ticks)
system.membus.respLayer1.utilization              1.3                       # Layer utilization (%)
system.tol2bus.trans_dist::ReadResp            534769                       # Transaction distribution
system.tol2bus.trans_dist::WritebackDirty       907064                       # Transaction distribution
system.tol2bus.trans_dist::WritebackClean          570                       # Transaction distribution
system.tol2bus.trans_dist::CleanEvict          136910                       # Transaction distribution
system.tol2bus.trans_dist::ReadExReq           341207                       # Transaction distribution
system.tol2bus.trans_dist::ReadExResp          341207                       # Transaction distribution
system.tol2bus.trans_dist::ReadCleanReq           826                       # Transaction distribution
system.tol2bus.trans_dist::ReadSharedReq       533943                       # Transaction distribution
system.tol2bus.pkt_count_system.cpu.icache.mem_side_port::system.l2.cpu_side_port         2222                       # Packet count per connected requestor and responder (bytes)
system.tol2bus.pkt_count_system.cpu.dcache.mem_side_port::system.l2.cpu_side_port      2624938                       # Packet count per connected requestor and responder (bytes)
system.tol2bus.pkt_count::total               2627160                       # Packet count per connected requestor and responder (bytes)
system.tol2bus.pkt_size_system.cpu.icache.mem_side_port::system.l2.cpu_side_port        89344                       # Cumulative packet size per connected requestor and responder (bytes)
system.tol2bus.pkt_size_system.cpu.dcache.mem_side_port::system.l2.cpu_side_port    106950912                       # Cumulative packet size per connected requestor and responder (bytes)
system.tol2bus.pkt_size::total              107040256                       # Cumulative packet size per connected requestor and responder (bytes)
system.tol2bus.snoops                          169336                       # Total snoops (count)
system.tol2bus.snoopTraffic                   7110784                       # Total snoop traffic (bytes)
system.tol2bus.snoop_fanout::samples          1045312                       # Request fanout histogram
system.tol2bus.snoop_fanout::mean            0.000751                       # Request fanout histogram
system.tol2bus.snoop_fanout::stdev           0.027394                       # Request fanout histogram
system.tol2bus.snoop_fanout::underflows             0      0.00%      0.00% # Request fanout histogram
system.tol2bus.snoop_fanout::0                1044527     99.92%     99.92% # Request fanout histogram
system.tol2bus.snoop_fanout::1                    785      0.08%    100.00% # Request fanout histogram
system.tol2bus.snoop_fanout::2                      0      0.00%    100.00% # Request fanout histogram
system.tol2bus.snoop_fanout::overflows              0      0.00%    100.00% # Request fanout histogram
system.tol2bus.snoop_fanout::min_value              0                       # Request fanout histogram
system.tol2bus.snoop_fanout::max_value              1                       # Request fanout histogram
system.tol2bus.snoop_fanout::total            1045312                       # Request fanout histogram
system.tol2bus.power_state.pwrStateResidencyTicks::UNDEFINED  85360013000                       # Cumulative time (in ticks) in various power states
system.tol2bus.reqLayer0.occupancy         1672120000                       # Layer occupancy (ticks)
system.tol2bus.reqLayer0.utilization              2.0                       # Layer utilization (%)
system.tol2bus.respLayer0.occupancy           1239000                       # Layer occupancy (ticks)
system.tol2bus.respLayer0.utilization             0.0                       # Layer utilization (%)
system.tol2bus.respLayer1.occupancy        1312727994                       # Layer occupancy (ticks)
system.tol2bus.respLayer1.utilization             1.5                       # Layer utilization (%)
system.voltage_domain.voltage                       1                       # Voltage in Volts

---------- End Simulation Statistics   ----------
