
---------- Begin Simulation Statistics ----------
final_tick                                62781002500                       # Number of ticks from beginning of simulation (restored from checkpoints and never reset)
host_inst_rate                                 385686                       # Simulator instruction rate (inst/s)
host_mem_usage                                 663644                       # Number of bytes of host memory used
host_op_rate                                   422061                       # Simulator op (including micro ops) rate (op/s)
host_seconds                                   259.28                       # Real time elapsed on the host
host_tick_rate                              242137616                       # Simulator tick rate (ticks/s)
sim_freq                                 1000000000000                       # Frequency of simulated ticks
sim_insts                                   100000001                       # Number of instructions simulated
sim_ops                                     109431277                       # Number of ops (including micro ops) simulated
sim_seconds                                  0.062781                       # Number of seconds simulated
sim_ticks                                 62781002500                       # Number of ticks simulated
system.cpu.committedInsts                   100000001                       # Number of instructions committed
system.cpu.committedOps                     109431277                       # Number of ops (including micro ops) committed
system.cpu.cpi                               1.255620                       # CPI: cycles per instruction
system.cpu.discardedOps                        376466                       # Number of ops (including micro ops) which were discarded before commit
system.cpu.idleCycles                        11029332                       # Total number of cycles that the object has spent stopped
system.cpu.ipc                               0.796419                       # IPC: instructions per cycle
system.cpu.numCycles                        125562005                       # number of cpu cycles simulated
system.cpu.numFetchSuspends                         0                       # Number of times Execute suspended instruction fetching
system.cpu.numWorkItemsCompleted                    0                       # number of work items this cpu completed
system.cpu.numWorkItemsStarted                      0                       # number of work items this cpu started
system.cpu.op_class_0::No_OpClass                   0      0.00%      0.00% # Class of committed instruction
system.cpu.op_class_0::IntAlu                72955010     66.67%     66.67% # Class of committed instruction
system.cpu.op_class_0::IntMult                 568364      0.52%     67.19% # Class of committed instruction
system.cpu.op_class_0::IntDiv                       0      0.00%     67.19% # Class of committed instruction
system.cpu.op_class_0::FloatAdd                     0      0.00%     67.19% # Class of committed instruction
system.cpu.op_class_0::FloatCmp                     0      0.00%     67.19% # Class of committed instruction
system.cpu.op_class_0::FloatCvt                     0      0.00%     67.19% # Class of committed instruction
system.cpu.op_class_0::FloatMult                    0      0.00%     67.19% # Class of committed instruction
system.cpu.op_class_0::FloatMultAcc                 0      0.00%     67.19% # Class of committed instruction
system.cpu.op_class_0::FloatDiv                     0      0.00%     67.19% # Class of committed instruction
system.cpu.op_class_0::FloatMisc                    0      0.00%     67.19% # Class of committed instruction
system.cpu.op_class_0::FloatSqrt                    0      0.00%     67.19% # Class of committed instruction
system.cpu.op_class_0::SimdAdd                 241336      0.22%     67.41% # Class of committed instruction
system.cpu.op_class_0::SimdAddAcc                   0      0.00%     67.41% # Class of committed instruction
system.cpu.op_class_0::SimdAlu                 154628      0.14%     67.55% # Class of committed instruction
system.cpu.op_class_0::SimdCmp                 120668      0.11%     67.66% # Class of committed instruction
system.cpu.op_class_0::SimdCvt                      0      0.00%     67.66% # Class of committed instruction
system.cpu.op_class_0::SimdMisc                 44543      0.04%     67.70% # Class of committed instruction
system.cpu.op_class_0::SimdMult                     0      0.00%     67.70% # Class of committed instruction
system.cpu.op_class_0::SimdMultAcc                  0      0.00%     67.70% # Class of committed instruction
system.cpu.op_class_0::SimdShift                    0      0.00%     67.70% # Class of committed instruction
system.cpu.op_class_0::SimdShiftAcc                 0      0.00%     67.70% # Class of committed instruction
system.cpu.op_class_0::SimdDiv                      0      0.00%     67.70% # Class of committed instruction
system.cpu.op_class_0::SimdSqrt                     0      0.00%     67.70% # Class of committed instruction
system.cpu.op_class_0::SimdFloatAdd                 0      0.00%     67.70% # Class of committed instruction
system.cpu.op_class_0::SimdFloatAlu                 0      0.00%     67.70% # Class of committed instruction
system.cpu.op_class_0::SimdFloatCmp                 0      0.00%     67.70% # Class of committed instruction
system.cpu.op_class_0::SimdFloatCvt                 0      0.00%     67.70% # Class of committed instruction
system.cpu.op_class_0::SimdFloatDiv                 0      0.00%     67.70% # Class of committed instruction
system.cpu.op_class_0::SimdFloatMisc           166417      0.15%     67.85% # Class of committed instruction
system.cpu.op_class_0::SimdFloatMult                0      0.00%     67.85% # Class of committed instruction
system.cpu.op_class_0::SimdFloatMultAcc             0      0.00%     67.85% # Class of committed instruction
system.cpu.op_class_0::SimdFloatSqrt                0      0.00%     67.85% # Class of committed instruction
system.cpu.op_class_0::SimdReduceAdd                0      0.00%     67.85% # Class of committed instruction
system.cpu.op_class_0::SimdReduceAlu                0      0.00%     67.85% # Class of committed instruction
system.cpu.op_class_0::SimdReduceCmp                0      0.00%     67.85% # Class of committed instruction
system.cpu.op_class_0::SimdFloatReduceAdd            0      0.00%     67.85% # Class of committed instruction
system.cpu.op_class_0::SimdFloatReduceCmp            0      0.00%     67.85% # Class of committed instruction
system.cpu.op_class_0::SimdAes                      0      0.00%     67.85% # Class of committed instruction
system.cpu.op_class_0::SimdAesMix                   0      0.00%     67.85% # Class of committed instruction
system.cpu.op_class_0::SimdSha1Hash                 0      0.00%     67.85% # Class of committed instruction
system.cpu.op_class_0::SimdSha1Hash2                0      0.00%     67.85% # Class of committed instruction
system.cpu.op_class_0::SimdSha256Hash               0      0.00%     67.85% # Class of committed instruction
system.cpu.op_class_0::SimdSha256Hash2              0      0.00%     67.85% # Class of committed instruction
system.cpu.op_class_0::SimdShaSigma2                0      0.00%     67.85% # Class of committed instruction
system.cpu.op_class_0::SimdShaSigma3                0      0.00%     67.85% # Class of committed instruction
system.cpu.op_class_0::SimdPredAlu                  0      0.00%     67.85% # Class of committed instruction
system.cpu.op_class_0::MemRead               20645992     18.87%     86.72% # Class of committed instruction
system.cpu.op_class_0::MemWrite              14534319     13.28%    100.00% # Class of committed instruction
system.cpu.op_class_0::FloatMemRead                 0      0.00%    100.00% # Class of committed instruction
system.cpu.op_class_0::FloatMemWrite                0      0.00%    100.00% # Class of committed instruction
system.cpu.op_class_0::IprAccess                    0      0.00%    100.00% # Class of committed instruction
system.cpu.op_class_0::InstPrefetch                 0      0.00%    100.00% # Class of committed instruction
system.cpu.op_class_0::total                109431277                       # Class of committed instruction
system.cpu.tickCycles                       114532673                       # Number of cycles that the object actually ticked
system.cpu.workload.numSyscalls                    87                       # Number of system calls
system.membus.snoop_filter.hit_multi_requests            0                       # Number of requests hitting in the snoop filter with multiple (>1) holders of the requested data.
system.membus.snoop_filter.hit_multi_snoops            0                       # Number of snoops hitting in the snoop filter with multiple (>1) holders of the requested data.
system.membus.snoop_filter.hit_single_requests        26153                       # Number of requests hitting in the snoop filter with a single holder of the requested data.
system.membus.snoop_filter.hit_single_snoops            0                       # Number of snoops hitting in the snoop filter with a single holder of the requested data.
system.membus.snoop_filter.tot_requests         69099                       # Total number of requests made to the snoop filter.
system.membus.snoop_filter.tot_snoops               0                       # Total number of snoops made to the snoop filter.
system.tol2bus.snoop_filter.hit_multi_requests           27                       # Number of requests hitting in the snoop filter with multiple (>1) holders of the requested data.
system.tol2bus.snoop_filter.hit_multi_snoops            4                       # Number of snoops hitting in the snoop filter with multiple (>1) holders of the requested data.
system.tol2bus.snoop_filter.hit_single_requests       587737                       # Number of requests hitting in the snoop filter with a single holder of the requested data.
system.tol2bus.snoop_filter.hit_single_snoops          435                       # Number of snoops hitting in the snoop filter with a single holder of the requested data.
system.tol2bus.snoop_filter.tot_requests      1176892                       # Total number of requests made to the snoop filter.
system.tol2bus.snoop_filter.tot_snoops            439                       # Total number of snoops made to the snoop filter.
system.clk_domain.clock                          1000                       # Clock period in ticks
system.cpu.branchPred.lookups                20360236                       # Number of BP lookups
system.cpu.branchPred.condPredicted          16297474                       # Number of conditional branches predicted
system.cpu.branchPred.condIncorrect             53386                       # Number of conditional branches incorrect
system.cpu.branchPred.BTBLookups              8737472                       # Number of BTB lookups
system.cpu.branchPred.BTBHits                 8736078                       # Number of BTB hits
system.cpu.branchPred.BTBHitPct             99.984046                       # BTB Hit Percentage
system.cpu.branchPred.RASUsed                 1050570                       # Number of times the RAS was used to get a target.
system.cpu.branchPred.RASIncorrect                325                       # Number of incorrect RAS predictions.
system.cpu.branchPred.indirectLookups          434000                       # Number of indirect predictor lookups.
system.cpu.branchPred.indirectHits             300030                       # Number of indirect target hits.
system.cpu.branchPred.indirectMisses           133970                       # Number of indirect misses.
system.cpu.branchPred.indirectMispredicted         1037                       # Number of mispredicted indirect branches.
system.cpu.dcache.demand_hits::.cpu.data     35612569                       # number of demand (read+write) hits
system.cpu.dcache.demand_hits::total         35612569                       # number of demand (read+write) hits
system.cpu.dcache.overall_hits::.cpu.data     35615888                       # number of overall hits
system.cpu.dcache.overall_hits::total        35615888                       # number of overall hits
system.cpu.dcache.demand_misses::.cpu.data        73569                       # number of demand (read+write) misses
system.cpu.dcache.demand_misses::total          73569                       # number of demand (read+write) misses
system.cpu.dcache.overall_misses::.cpu.data        73611                       # number of overall misses
system.cpu.dcache.overall_misses::total         73611                       # number of overall misses
system.cpu.dcache.demand_miss_latency::.cpu.data   4662363500                       # number of demand (read+write) miss cycles
system.cpu.dcache.demand_miss_latency::total   4662363500                       # number of demand (read+write) miss cycles
system.cpu.dcache.overall_miss_latency::.cpu.data   4662363500                       # number of overall miss cycles
system.cpu.dcache.overall_miss_latency::total   4662363500                       # number of overall miss cycles
system.cpu.dcache.demand_accesses::.cpu.data     35686138                       # number of demand (read+write) accesses
system.cpu.dcache.demand_accesses::total     35686138                       # number of demand (read+write) accesses
system.cpu.dcache.overall_accesses::.cpu.data     35689499                       # number of overall (read+write) accesses
system.cpu.dcache.overall_accesses::total     35689499                       # number of overall (read+write) accesses
system.cpu.dcache.demand_miss_rate::.cpu.data     0.002062                       # miss rate for demand accesses
system.cpu.dcache.demand_miss_rate::total     0.002062                       # miss rate for demand accesses
system.cpu.dcache.overall_miss_rate::.cpu.data     0.002063                       # miss rate for overall accesses
system.cpu.dcache.overall_miss_rate::total     0.002063                       # miss rate for overall accesses
system.cpu.dcache.demand_avg_miss_latency::.cpu.data 63374.023026                       # average overall miss latency
system.cpu.dcache.demand_avg_miss_latency::total 63374.023026                       # average overall miss latency
system.cpu.dcache.overall_avg_miss_latency::.cpu.data 63337.863906                       # average overall miss latency
system.cpu.dcache.overall_avg_miss_latency::total 63337.863906                       # average overall miss latency
system.cpu.dcache.blocked_cycles::no_mshrs            0                       # number of cycles access was blocked
system.cpu.dcache.blocked_cycles::no_targets            0                       # number of cycles access was blocked
system.cpu.dcache.blocked::no_mshrs                 0                       # number of cycles access was blocked
system.cpu.dcache.blocked::no_targets               0                       # number of cycles access was blocked
system.cpu.dcache.avg_blocked_cycles::no_mshrs          nan                       # average number of cycles each access was blocked
system.cpu.dcache.avg_blocked_cycles::no_targets          nan                       # average number of cycles each access was blocked
system.cpu.dcache.writebacks::.writebacks        49891                       # number of writebacks
system.cpu.dcache.writebacks::total             49891                       # number of writebacks
system.cpu.dcache.demand_mshr_hits::.cpu.data        19570                       # number of demand (read+write) MSHR hits
system.cpu.dcache.demand_mshr_hits::total        19570                       # number of demand (read+write) MSHR hits
system.cpu.dcache.overall_mshr_hits::.cpu.data        19570                       # number of overall MSHR hits
system.cpu.dcache.overall_mshr_hits::total        19570                       # number of overall MSHR hits
system.cpu.dcache.demand_mshr_misses::.cpu.data        53999                       # number of demand (read+write) MSHR misses
system.cpu.dcache.demand_mshr_misses::total        53999                       # number of demand (read+write) MSHR misses
system.cpu.dcache.overall_mshr_misses::.cpu.data        54036                       # number of overall MSHR misses
system.cpu.dcache.overall_mshr_misses::total        54036                       # number of overall MSHR misses
system.cpu.dcache.demand_mshr_miss_latency::.cpu.data   3546611000                       # number of demand (read+write) MSHR miss cycles
system.cpu.dcache.demand_mshr_miss_latency::total   3546611000                       # number of demand (read+write) MSHR miss cycles
system.cpu.dcache.overall_mshr_miss_latency::.cpu.data   3548075500                       # number of overall MSHR miss cycles
system.cpu.dcache.overall_mshr_miss_latency::total   3548075500                       # number of overall MSHR miss cycles
system.cpu.dcache.demand_mshr_miss_rate::.cpu.data     0.001513                       # mshr miss rate for demand accesses
system.cpu.dcache.demand_mshr_miss_rate::total     0.001513                       # mshr miss rate for demand accesses
system.cpu.dcache.overall_mshr_miss_rate::.cpu.data     0.001514                       # mshr miss rate for overall accesses
system.cpu.dcache.overall_mshr_miss_rate::total     0.001514                       # mshr miss rate for overall accesses
system.cpu.dcache.demand_avg_mshr_miss_latency::.cpu.data 65679.197763                       # average overall mshr miss latency
system.cpu.dcache.demand_avg_mshr_miss_latency::total 65679.197763                       # average overall mshr miss latency
system.cpu.dcache.overall_avg_mshr_miss_latency::.cpu.data 65661.327633                       # average overall mshr miss latency
system.cpu.dcache.overall_avg_mshr_miss_latency::total 65661.327633                       # average overall mshr miss latency
system.cpu.dcache.replacements                  53012                       # number of replacements
system.cpu.dcache.ReadReq_hits::.cpu.data     21413647                       # number of ReadReq hits
system.cpu.dcache.ReadReq_hits::total        21413647                       # number of ReadReq hits
system.cpu.dcache.ReadReq_misses::.cpu.data        18223                       # number of ReadReq misses
system.cpu.dcache.ReadReq_misses::total         18223                       # number of ReadReq misses
system.cpu.dcache.ReadReq_miss_latency::.cpu.data    537438000                       # number of ReadReq miss cycles
system.cpu.dcache.ReadReq_miss_latency::total    537438000                       # number of ReadReq miss cycles
system.cpu.dcache.ReadReq_accesses::.cpu.data     21431870                       # number of ReadReq accesses(hits+misses)
system.cpu.dcache.ReadReq_accesses::total     21431870                       # number of ReadReq accesses(hits+misses)
system.cpu.dcache.ReadReq_miss_rate::.cpu.data     0.000850                       # miss rate for ReadReq accesses
system.cpu.dcache.ReadReq_miss_rate::total     0.000850                       # miss rate for ReadReq accesses
system.cpu.dcache.ReadReq_avg_miss_latency::.cpu.data 29492.289963                       # average ReadReq miss latency
system.cpu.dcache.ReadReq_avg_miss_latency::total 29492.289963                       # average ReadReq miss latency
system.cpu.dcache.ReadReq_mshr_hits::.cpu.data         3044                       # number of ReadReq MSHR hits
system.cpu.dcache.ReadReq_mshr_hits::total         3044                       # number of ReadReq MSHR hits
system.cpu.dcache.ReadReq_mshr_misses::.cpu.data        15179                       # number of ReadReq MSHR misses
system.cpu.dcache.ReadReq_mshr_misses::total        15179                       # number of ReadReq MSHR misses
system.cpu.dcache.ReadReq_mshr_miss_latency::.cpu.data    470851500                       # number of ReadReq MSHR miss cycles
system.cpu.dcache.ReadReq_mshr_miss_latency::total    470851500                       # number of ReadReq MSHR miss cycles
system.cpu.dcache.ReadReq_mshr_miss_rate::.cpu.data     0.000708                       # mshr miss rate for ReadReq accesses
system.cpu.dcache.ReadReq_mshr_miss_rate::total     0.000708                       # mshr miss rate for ReadReq accesses
system.cpu.dcache.ReadReq_avg_mshr_miss_latency::.cpu.data 31019.928849                       # average ReadReq mshr miss latency
system.cpu.dcache.ReadReq_avg_mshr_miss_latency::total 31019.928849                       # average ReadReq mshr miss latency
system.cpu.dcache.WriteReq_hits::.cpu.data     14198922                       # number of WriteReq hits
system.cpu.dcache.WriteReq_hits::total       14198922                       # number of WriteReq hits
system.cpu.dcache.WriteReq_misses::.cpu.data        55346                       # number of WriteReq misses
system.cpu.dcache.WriteReq_misses::total        55346                       # number of WriteReq misses
system.cpu.dcache.WriteReq_miss_latency::.cpu.data   4124925500                       # number of WriteReq miss cycles
system.cpu.dcache.WriteReq_miss_latency::total   4124925500                       # number of WriteReq miss cycles
system.cpu.dcache.WriteReq_accesses::.cpu.data     14254268                       # number of WriteReq accesses(hits+misses)
system.cpu.dcache.WriteReq_accesses::total     14254268                       # number of WriteReq accesses(hits+misses)
system.cpu.dcache.WriteReq_miss_rate::.cpu.data     0.003883                       # miss rate for WriteReq accesses
system.cpu.dcache.WriteReq_miss_rate::total     0.003883                       # miss rate for WriteReq accesses
system.cpu.dcache.WriteReq_avg_miss_latency::.cpu.data 74529.785350                       # average WriteReq miss latency
system.cpu.dcache.WriteReq_avg_miss_latency::total 74529.785350                       # average WriteReq miss latency
system.cpu.dcache.WriteReq_mshr_hits::.cpu.data        16526                       # number of WriteReq MSHR hits
system.cpu.dcache.WriteReq_mshr_hits::total        16526                       # number of WriteReq MSHR hits
system.cpu.dcache.WriteReq_mshr_misses::.cpu.data        38820                       # number of WriteReq MSHR misses
system.cpu.dcache.WriteReq_mshr_misses::total        38820                       # number of WriteReq MSHR misses
system.cpu.dcache.WriteReq_mshr_miss_latency::.cpu.data   3075759500                       # number of WriteReq MSHR miss cycles
system.cpu.dcache.WriteReq_mshr_miss_latency::total   3075759500                       # number of WriteReq MSHR miss cycles
system.cpu.dcache.WriteReq_mshr_miss_rate::.cpu.data     0.002723                       # mshr miss rate for WriteReq accesses
system.cpu.dcache.WriteReq_mshr_miss_rate::total     0.002723                       # mshr miss rate for WriteReq accesses
system.cpu.dcache.WriteReq_avg_mshr_miss_latency::.cpu.data 79231.311180                       # average WriteReq mshr miss latency
system.cpu.dcache.WriteReq_avg_mshr_miss_latency::total 79231.311180                       # average WriteReq mshr miss latency
system.cpu.dcache.SoftPFReq_hits::.cpu.data         3319                       # number of SoftPFReq hits
system.cpu.dcache.SoftPFReq_hits::total          3319                       # number of SoftPFReq hits
system.cpu.dcache.SoftPFReq_misses::.cpu.data           42                       # number of SoftPFReq misses
system.cpu.dcache.SoftPFReq_misses::total           42                       # number of SoftPFReq misses
system.cpu.dcache.SoftPFReq_accesses::.cpu.data         3361                       # number of SoftPFReq accesses(hits+misses)
system.cpu.dcache.SoftPFReq_accesses::total         3361                       # number of SoftPFReq accesses(hits+misses)
system.cpu.dcache.SoftPFReq_miss_rate::.cpu.data     0.012496                       # miss rate for SoftPFReq accesses
system.cpu.dcache.SoftPFReq_miss_rate::total     0.012496                       # miss rate for SoftPFReq accesses
system.cpu.dcache.SoftPFReq_mshr_misses::.cpu.data           37                       # number of SoftPFReq MSHR misses
system.cpu.dcache.SoftPFReq_mshr_misses::total           37                       # number of SoftPFReq MSHR misses
system.cpu.dcache.SoftPFReq_mshr_miss_latency::.cpu.data      1464500                       # number of SoftPFReq MSHR miss cycles
system.cpu.dcache.SoftPFReq_mshr_miss_latency::total      1464500                       # number of SoftPFReq MSHR miss cycles
system.cpu.dcache.SoftPFReq_mshr_miss_rate::.cpu.data     0.011009                       # mshr miss rate for SoftPFReq accesses
system.cpu.dcache.SoftPFReq_mshr_miss_rate::total     0.011009                       # mshr miss rate for SoftPFReq accesses
system.cpu.dcache.SoftPFReq_avg_mshr_miss_latency::.cpu.data 39581.081081                       # average SoftPFReq mshr miss latency
system.cpu.dcache.SoftPFReq_avg_mshr_miss_latency::total 39581.081081                       # average SoftPFReq mshr miss latency
system.cpu.dcache.LoadLockedReq_hits::.cpu.data        89080                       # number of LoadLockedReq hits
system.cpu.dcache.LoadLockedReq_hits::total        89080                       # number of LoadLockedReq hits
system.cpu.dcache.LoadLockedReq_accesses::.cpu.data        89080                       # number of LoadLockedReq accesses(hits+misses)
system.cpu.dcache.LoadLockedReq_accesses::total        89080                       # number of LoadLockedReq accesses(hits+misses)
system.cpu.dcache.StoreCondReq_hits::.cpu.data        89080                       # number of StoreCondReq hits
system.cpu.dcache.StoreCondReq_hits::total        89080                       # number of StoreCondReq hits
system.cpu.dcache.StoreCondReq_accesses::.cpu.data        89080                       # number of StoreCondReq accesses(hits+misses)
system.cpu.dcache.StoreCondReq_accesses::total        89080                       # number of StoreCondReq accesses(hits+misses)
system.cpu.dcache.power_state.pwrStateResidencyTicks::UNDEFINED  62781002500                       # Cumulative time (in ticks) in various power states
system.cpu.dcache.tags.tagsinuse          1020.550543                       # Cycle average of tags in use
system.cpu.dcache.tags.total_refs            35848084                       # Total number of references to valid blocks.
system.cpu.dcache.tags.sampled_refs             54036                       # Sample count of references to valid blocks.
system.cpu.dcache.tags.avg_refs            663.411133                       # Average number of references to valid blocks.
system.cpu.dcache.tags.warmup_cycle            176500                       # Cycle when the warmup percentage was hit.
system.cpu.dcache.tags.occ_blocks::.cpu.data  1020.550543                       # Average occupied blocks per requestor
system.cpu.dcache.tags.occ_percent::.cpu.data     0.996631                       # Average percentage of cache occupancy
system.cpu.dcache.tags.occ_percent::total     0.996631                       # Average percentage of cache occupancy
system.cpu.dcache.tags.occ_task_id_blocks::1024         1024                       # Occupied blocks per task id
system.cpu.dcache.tags.age_task_id_blocks_1024::0            4                       # Occupied blocks per task id
system.cpu.dcache.tags.age_task_id_blocks_1024::1           38                       # Occupied blocks per task id
system.cpu.dcache.tags.age_task_id_blocks_1024::2          511                       # Occupied blocks per task id
system.cpu.dcache.tags.age_task_id_blocks_1024::3          430                       # Occupied blocks per task id
system.cpu.dcache.tags.age_task_id_blocks_1024::4           41                       # Occupied blocks per task id
system.cpu.dcache.tags.occ_task_id_percent::1024            1                       # Percentage of cache occupancy per task id
system.cpu.dcache.tags.tag_accesses          71789354                       # Number of tag accesses
system.cpu.dcache.tags.data_accesses         71789354                       # Number of data accesses
system.cpu.dcache.tags.power_state.pwrStateResidencyTicks::UNDEFINED  62781002500                       # Cumulative time (in ticks) in various power states
system.cpu.dtb.instHits                             0                       # ITB inst hits
system.cpu.dtb.instMisses                           0                       # ITB inst misses
system.cpu.dtb.readHits                             0                       # DTB read hits
system.cpu.dtb.readMisses                           0                       # DTB read misses
system.cpu.dtb.writeHits                            0                       # DTB write hits
system.cpu.dtb.writeMisses                          0                       # DTB write misses
system.cpu.dtb.inserts                              0                       # Number of times an entry is inserted into the TLB
system.cpu.dtb.flushTlb                             0                       # Number of times complete TLB was flushed
system.cpu.dtb.flushTlbMva                          0                       # Number of times TLB was flushed by MVA
system.cpu.dtb.flushTlbMvaAsid                      0                       # Number of times TLB was flushed by MVA & ASID
system.cpu.dtb.flushTlbAsid                         0                       # Number of times TLB was flushed by ASID
system.cpu.dtb.flushedEntries                       0                       # Number of entries that have been flushed from TLB
system.cpu.dtb.alignFaults                          0                       # Number of TLB faults due to alignment restrictions
system.cpu.dtb.prefetchFaults                       0                       # Number of TLB faults due to prefetch
system.cpu.dtb.domainFaults                         0                       # Number of TLB faults due to domain restrictions
system.cpu.dtb.permsFaults                          0                       # Number of TLB faults due to permissions restrictions
system.cpu.dtb.readAccesses                         0                       # DTB read accesses
system.cpu.dtb.writeAccesses                        0                       # DTB write accesses
system.cpu.dtb.instAccesses                         0                       # ITB inst accesses
system.cpu.dtb.hits                                 0                       # Total TLB (inst and data) hits
system.cpu.dtb.misses                               0                       # Total TLB (inst and data) misses
system.cpu.dtb.accesses                             0                       # Total TLB (inst and data) accesses
system.cpu.dtb.stage2_mmu.stage2_tlb.instHits            0                       # ITB inst hits
system.cpu.dtb.stage2_mmu.stage2_tlb.instMisses            0                       # ITB inst misses
system.cpu.dtb.stage2_mmu.stage2_tlb.readHits            0                       # DTB read hits
system.cpu.dtb.stage2_mmu.stage2_tlb.readMisses            0                       # DTB read misses
system.cpu.dtb.stage2_mmu.stage2_tlb.writeHits            0                       # DTB write hits
system.cpu.dtb.stage2_mmu.stage2_tlb.writeMisses            0                       # DTB write misses
system.cpu.dtb.stage2_mmu.stage2_tlb.inserts            0                       # Number of times an entry is inserted into the TLB
system.cpu.dtb.stage2_mmu.stage2_tlb.flushTlb            0                       # Number of times complete TLB was flushed
system.cpu.dtb.stage2_mmu.stage2_tlb.flushTlbMva            0                       # Number of times TLB was flushed by MVA
system.cpu.dtb.stage2_mmu.stage2_tlb.flushTlbMvaAsid            0                       # Number of times TLB was flushed by MVA & ASID
system.cpu.dtb.stage2_mmu.stage2_tlb.flushTlbAsid            0                       # Number of times TLB was flushed by ASID
system.cpu.dtb.stage2_mmu.stage2_tlb.flushedEntries            0                       # Number of entries that have been flushed from TLB
system.cpu.dtb.stage2_mmu.stage2_tlb.alignFaults            0                       # Number of TLB faults due to alignment restrictions
system.cpu.dtb.stage2_mmu.stage2_tlb.prefetchFaults            0                       # Number of TLB faults due to prefetch
system.cpu.dtb.stage2_mmu.stage2_tlb.domainFaults            0                       # Number of TLB faults due to domain restrictions
system.cpu.dtb.stage2_mmu.stage2_tlb.permsFaults            0                       # Number of TLB faults due to permissions restrictions
system.cpu.dtb.stage2_mmu.stage2_tlb.readAccesses            0                       # DTB read accesses
system.cpu.dtb.stage2_mmu.stage2_tlb.writeAccesses            0                       # DTB write accesses
system.cpu.dtb.stage2_mmu.stage2_tlb.instAccesses            0                       # ITB inst accesses
system.cpu.dtb.stage2_mmu.stage2_tlb.hits            0                       # Total TLB (inst and data) hits
system.cpu.dtb.stage2_mmu.stage2_tlb.misses            0                       # Total TLB (inst and data) misses
system.cpu.dtb.stage2_mmu.stage2_tlb.accesses            0                       # Total TLB (inst and data) accesses
system.cpu.dtb.stage2_mmu.stage2_tlb.walker.walks            0                       # Table walker walks requested
system.cpu.dtb.stage2_mmu.stage2_tlb.walker.requestOrigin_Requested::Data            0                       # Table walker requests started/completed, data/inst
system.cpu.dtb.stage2_mmu.stage2_tlb.walker.requestOrigin_Requested::Inst            0                       # Table walker requests started/completed, data/inst
system.cpu.dtb.stage2_mmu.stage2_tlb.walker.requestOrigin_Requested::total            0                       # Table walker requests started/completed, data/inst
system.cpu.dtb.stage2_mmu.stage2_tlb.walker.requestOrigin_Completed::Data            0                       # Table walker requests started/completed, data/inst
system.cpu.dtb.stage2_mmu.stage2_tlb.walker.requestOrigin_Completed::Inst            0                       # Table walker requests started/completed, data/inst
system.cpu.dtb.stage2_mmu.stage2_tlb.walker.requestOrigin_Completed::total            0                       # Table walker requests started/completed, data/inst
system.cpu.dtb.stage2_mmu.stage2_tlb.walker.requestOrigin::total            0                       # Table walker requests started/completed, data/inst
system.cpu.dtb.stage2_mmu.stage2_tlb.walker.power_state.pwrStateResidencyTicks::UNDEFINED  62781002500                       # Cumulative time (in ticks) in various power states
system.cpu.dtb.walker.walks                         0                       # Table walker walks requested
system.cpu.dtb.walker.requestOrigin_Requested::Data            0                       # Table walker requests started/completed, data/inst
system.cpu.dtb.walker.requestOrigin_Requested::Inst            0                       # Table walker requests started/completed, data/inst
system.cpu.dtb.walker.requestOrigin_Requested::total            0                       # Table walker requests started/completed, data/inst
system.cpu.dtb.walker.requestOrigin_Completed::Data            0                       # Table walker requests started/completed, data/inst
system.cpu.dtb.walker.requestOrigin_Completed::Inst            0                       # Table walker requests started/completed, data/inst
system.cpu.dtb.walker.requestOrigin_Completed::total            0                       # Table walker requests started/completed, data/inst
system.cpu.dtb.walker.requestOrigin::total            0                       # Table walker requests started/completed, data/inst
system.cpu.dtb.walker.power_state.pwrStateResidencyTicks::UNDEFINED  62781002500                       # Cumulative time (in ticks) in various power states
system.cpu.fetch2.intInstructions            49060501                       # Number of integer instructions successfully decoded
system.cpu.fetch2.fpInstructions                    0                       # Number of floating point instructions successfully decoded
system.cpu.fetch2.vecInstructions                   0                       # Number of SIMD instructions successfully decoded
system.cpu.fetch2.loadInstructions           17106408                       # Number of memory load instructions successfully decoded
system.cpu.fetch2.storeInstructions           9763865                       # Number of memory store instructions successfully decoded
system.cpu.fetch2.amoInstructions                   0                       # Number of memory atomic instructions successfully decoded
system.cpu.icache.demand_hits::.cpu.inst     27580448                       # number of demand (read+write) hits
system.cpu.icache.demand_hits::total         27580448                       # number of demand (read+write) hits
system.cpu.icache.overall_hits::.cpu.inst     27580448                       # number of overall hits
system.cpu.icache.overall_hits::total        27580448                       # number of overall hits
system.cpu.icache.demand_misses::.cpu.inst       535123                       # number of demand (read+write) misses
system.cpu.icache.demand_misses::total         535123                       # number of demand (read+write) misses
system.cpu.icache.overall_misses::.cpu.inst       535123                       # number of overall misses
system.cpu.icache.overall_misses::total        535123                       # number of overall misses
system.cpu.icache.demand_miss_latency::.cpu.inst   6990997500                       # number of demand (read+write) miss cycles
system.cpu.icache.demand_miss_latency::total   6990997500                       # number of demand (read+write) miss cycles
system.cpu.icache.overall_miss_latency::.cpu.inst   6990997500                       # number of overall miss cycles
system.cpu.icache.overall_miss_latency::total   6990997500                       # number of overall miss cycles
system.cpu.icache.demand_accesses::.cpu.inst     28115571                       # number of demand (read+write) accesses
system.cpu.icache.demand_accesses::total     28115571                       # number of demand (read+write) accesses
system.cpu.icache.overall_accesses::.cpu.inst     28115571                       # number of overall (read+write) accesses
system.cpu.icache.overall_accesses::total     28115571                       # number of overall (read+write) accesses
system.cpu.icache.demand_miss_rate::.cpu.inst     0.019033                       # miss rate for demand accesses
system.cpu.icache.demand_miss_rate::total     0.019033                       # miss rate for demand accesses
system.cpu.icache.overall_miss_rate::.cpu.inst     0.019033                       # miss rate for overall accesses
system.cpu.icache.overall_miss_rate::total     0.019033                       # miss rate for overall accesses
system.cpu.icache.demand_avg_miss_latency::.cpu.inst 13064.281483                       # average overall miss latency
system.cpu.icache.demand_avg_miss_latency::total 13064.281483                       # average overall miss latency
system.cpu.icache.overall_avg_miss_latency::.cpu.inst 13064.281483                       # average overall miss latency
system.cpu.icache.overall_avg_miss_latency::total 13064.281483                       # average overall miss latency
system.cpu.icache.blocked_cycles::no_mshrs            0                       # number of cycles access was blocked
system.cpu.icache.blocked_cycles::no_targets            0                       # number of cycles access was blocked
system.cpu.icache.blocked::no_mshrs                 0                       # number of cycles access was blocked
system.cpu.icache.blocked::no_targets               0                       # number of cycles access was blocked
system.cpu.icache.avg_blocked_cycles::no_mshrs          nan                       # average number of cycles each access was blocked
system.cpu.icache.avg_blocked_cycles::no_targets          nan                       # average number of cycles each access was blocked
system.cpu.icache.writebacks::.writebacks       534721                       # number of writebacks
system.cpu.icache.writebacks::total            534721                       # number of writebacks
system.cpu.icache.demand_mshr_misses::.cpu.inst       535123                       # number of demand (read+write) MSHR misses
system.cpu.icache.demand_mshr_misses::total       535123                       # number of demand (read+write) MSHR misses
system.cpu.icache.overall_mshr_misses::.cpu.inst       535123                       # number of overall MSHR misses
system.cpu.icache.overall_mshr_misses::total       535123                       # number of overall MSHR misses
system.cpu.icache.demand_mshr_miss_latency::.cpu.inst   6455874500                       # number of demand (read+write) MSHR miss cycles
system.cpu.icache.demand_mshr_miss_latency::total   6455874500                       # number of demand (read+write) MSHR miss cycles
system.cpu.icache.overall_mshr_miss_latency::.cpu.inst   6455874500                       # number of overall MSHR miss cycles
system.cpu.icache.overall_mshr_miss_latency::total   6455874500                       # number of overall MSHR miss cycles
system.cpu.icache.demand_mshr_miss_rate::.cpu.inst     0.019033                       # mshr miss rate for demand accesses
system.cpu.icache.demand_mshr_miss_rate::total     0.019033                       # mshr miss rate for demand accesses
system.cpu.icache.overall_mshr_miss_rate::.cpu.inst     0.019033                       # mshr miss rate for overall accesses
system.cpu.icache.overall_mshr_miss_rate::total     0.019033                       # mshr miss rate for overall accesses
system.cpu.icache.demand_avg_mshr_miss_latency::.cpu.inst 12064.281483                       # average overall mshr miss latency
system.cpu.icache.demand_avg_mshr_miss_latency::total 12064.281483                       # average overall mshr miss latency
system.cpu.icache.overall_avg_mshr_miss_latency::.cpu.inst 12064.281483                       # average overall mshr miss latency
system.cpu.icache.overall_avg_mshr_miss_latency::total 12064.281483                       # average overall mshr miss latency
system.cpu.icache.replacements                 534721                       # number of replacements
system.cpu.icache.ReadReq_hits::.cpu.inst     27580448                       # number of ReadReq hits
system.cpu.icache.ReadReq_hits::total        27580448                       # number of ReadReq hits
system.cpu.icache.ReadReq_misses::.cpu.inst       535123                       # number of ReadReq misses
system.cpu.icache.ReadReq_misses::total        535123                       # number of ReadReq misses
system.cpu.icache.ReadReq_miss_latency::.cpu.inst   6990997500                       # number of ReadReq miss cycles
system.cpu.icache.ReadReq_miss_latency::total   6990997500                       # number of ReadReq miss cycles
system.cpu.icache.ReadReq_accesses::.cpu.inst     28115571                       # number of ReadReq accesses(hits+misses)
system.cpu.icache.ReadReq_accesses::total     28115571                       # number of ReadReq accesses(hits+misses)
system.cpu.icache.ReadReq_miss_rate::.cpu.inst     0.019033                       # miss rate for ReadReq accesses
system.cpu.icache.ReadReq_miss_rate::total     0.019033                       # miss rate for ReadReq accesses
system.cpu.icache.ReadReq_avg_miss_latency::.cpu.inst 13064.281483                       # average ReadReq miss latency
system.cpu.icache.ReadReq_avg_miss_latency::total 13064.281483                       # average ReadReq miss latency
system.cpu.icache.ReadReq_mshr_misses::.cpu.inst       535123                       # number of ReadReq MSHR misses
system.cpu.icache.ReadReq_mshr_misses::total       535123                       # number of ReadReq MSHR misses
system.cpu.icache.ReadReq_mshr_miss_latency::.cpu.inst   6455874500                       # number of ReadReq MSHR miss cycles
system.cpu.icache.ReadReq_mshr_miss_latency::total   6455874500                       # number of ReadReq MSHR miss cycles
system.cpu.icache.ReadReq_mshr_miss_rate::.cpu.inst     0.019033                       # mshr miss rate for ReadReq accesses
system.cpu.icache.ReadReq_mshr_miss_rate::total     0.019033                       # mshr miss rate for ReadReq accesses
system.cpu.icache.ReadReq_avg_mshr_miss_latency::.cpu.inst 12064.281483                       # average ReadReq mshr miss latency
system.cpu.icache.ReadReq_avg_mshr_miss_latency::total 12064.281483                       # average ReadReq mshr miss latency
system.cpu.icache.power_state.pwrStateResidencyTicks::UNDEFINED  62781002500                       # Cumulative time (in ticks) in various power states
system.cpu.icache.tags.tagsinuse           401.786843                       # Cycle average of tags in use
system.cpu.icache.tags.total_refs            28115571                       # Total number of references to valid blocks.
system.cpu.icache.tags.sampled_refs            535123                       # Sample count of references to valid blocks.
system.cpu.icache.tags.avg_refs             52.540390                       # Average number of references to valid blocks.
system.cpu.icache.tags.warmup_cycle             87500                       # Cycle when the warmup percentage was hit.
system.cpu.icache.tags.occ_blocks::.cpu.inst   401.786843                       # Average occupied blocks per requestor
system.cpu.icache.tags.occ_percent::.cpu.inst     0.784740                       # Average percentage of cache occupancy
system.cpu.icache.tags.occ_percent::total     0.784740                       # Average percentage of cache occupancy
system.cpu.icache.tags.occ_task_id_blocks::1024          402                       # Occupied blocks per task id
system.cpu.icache.tags.age_task_id_blocks_1024::0            8                       # Occupied blocks per task id
system.cpu.icache.tags.age_task_id_blocks_1024::2            3                       # Occupied blocks per task id
system.cpu.icache.tags.age_task_id_blocks_1024::4          391                       # Occupied blocks per task id
system.cpu.icache.tags.occ_task_id_percent::1024     0.785156                       # Percentage of cache occupancy per task id
system.cpu.icache.tags.tag_accesses          56766265                       # Number of tag accesses
system.cpu.icache.tags.data_accesses         56766265                       # Number of data accesses
system.cpu.icache.tags.power_state.pwrStateResidencyTicks::UNDEFINED  62781002500                       # Cumulative time (in ticks) in various power states
system.cpu.itb.instHits                             0                       # ITB inst hits
system.cpu.itb.instMisses                           0                       # ITB inst misses
system.cpu.itb.readHits                             0                       # DTB read hits
system.cpu.itb.readMisses                           0                       # DTB read misses
system.cpu.itb.writeHits                            0                       # DTB write hits
system.cpu.itb.writeMisses                          0                       # DTB write misses
system.cpu.itb.inserts                              0                       # Number of times an entry is inserted into the TLB
system.cpu.itb.flushTlb                             0                       # Number of times complete TLB was flushed
system.cpu.itb.flushTlbMva                          0                       # Number of times TLB was flushed by MVA
system.cpu.itb.flushTlbMvaAsid                      0                       # Number of times TLB was flushed by MVA & ASID
system.cpu.itb.flushTlbAsid                         0                       # Number of times TLB was flushed by ASID
system.cpu.itb.flushedEntries                       0                       # Number of entries that have been flushed from TLB
system.cpu.itb.alignFaults                          0                       # Number of TLB faults due to alignment restrictions
system.cpu.itb.prefetchFaults                       0                       # Number of TLB faults due to prefetch
system.cpu.itb.domainFaults                         0                       # Number of TLB faults due to domain restrictions
system.cpu.itb.permsFaults                          0                       # Number of TLB faults due to permissions restrictions
system.cpu.itb.readAccesses                         0                       # DTB read accesses
system.cpu.itb.writeAccesses                        0                       # DTB write accesses
system.cpu.itb.instAccesses                         0                       # ITB inst accesses
system.cpu.itb.hits                                 0                       # Total TLB (inst and data) hits
system.cpu.itb.misses                               0                       # Total TLB (inst and data) misses
system.cpu.itb.accesses                             0                       # Total TLB (inst and data) accesses
system.cpu.itb.stage2_mmu.stage2_tlb.instHits            0                       # ITB inst hits
system.cpu.itb.stage2_mmu.stage2_tlb.instMisses            0                       # ITB inst misses
system.cpu.itb.stage2_mmu.stage2_tlb.readHits            0                       # DTB read hits
system.cpu.itb.stage2_mmu.stage2_tlb.readMisses            0                       # DTB read misses
system.cpu.itb.stage2_mmu.stage2_tlb.writeHits            0                       # DTB write hits
system.cpu.itb.stage2_mmu.stage2_tlb.writeMisses            0                       # DTB write misses
system.cpu.itb.stage2_mmu.stage2_tlb.inserts            0                       # Number of times an entry is inserted into the TLB
system.cpu.itb.stage2_mmu.stage2_tlb.flushTlb            0                       # Number of times complete TLB was flushed
system.cpu.itb.stage2_mmu.stage2_tlb.flushTlbMva            0                       # Number of times TLB was flushed by MVA
system.cpu.itb.stage2_mmu.stage2_tlb.flushTlbMvaAsid            0                       # Number of times TLB was flushed by MVA & ASID
system.cpu.itb.stage2_mmu.stage2_tlb.flushTlbAsid            0                       # Number of times TLB was flushed by ASID
system.cpu.itb.stage2_mmu.stage2_tlb.flushedEntries            0                       # Number of entries that have been flushed from TLB
system.cpu.itb.stage2_mmu.stage2_tlb.alignFaults            0                       # Number of TLB faults due to alignment restrictions
system.cpu.itb.stage2_mmu.stage2_tlb.prefetchFaults            0                       # Number of TLB faults due to prefetch
system.cpu.itb.stage2_mmu.stage2_tlb.domainFaults            0                       # Number of TLB faults due to domain restrictions
system.cpu.itb.stage2_mmu.stage2_tlb.permsFaults            0                       # Number of TLB faults due to permissions restrictions
system.cpu.itb.stage2_mmu.stage2_tlb.readAccesses            0                       # DTB read accesses
system.cpu.itb.stage2_mmu.stage2_tlb.writeAccesses            0                       # DTB write accesses
system.cpu.itb.stage2_mmu.stage2_tlb.instAccesses            0                       # ITB inst accesses
system.cpu.itb.stage2_mmu.stage2_tlb.hits            0                       # Total TLB (inst and data) hits
system.cpu.itb.stage2_mmu.stage2_tlb.misses            0                       # Total TLB (inst and data) misses
system.cpu.itb.stage2_mmu.stage2_tlb.accesses            0                       # Total TLB (inst and data) accesses
system.cpu.itb.stage2_mmu.stage2_tlb.walker.walks            0                       # Table walker walks requested
system.cpu.itb.stage2_mmu.stage2_tlb.walker.requestOrigin_Requested::Data            0                       # Table walker requests started/completed, data/inst
system.cpu.itb.stage2_mmu.stage2_tlb.walker.requestOrigin_Requested::Inst            0                       # Table walker requests started/completed, data/inst
system.cpu.itb.stage2_mmu.stage2_tlb.walker.requestOrigin_Requested::total            0                       # Table walker requests started/completed, data/inst
system.cpu.itb.stage2_mmu.stage2_tlb.walker.requestOrigin_Completed::Data            0                       # Table walker requests started/completed, data/inst
system.cpu.itb.stage2_mmu.stage2_tlb.walker.requestOrigin_Completed::Inst            0                       # Table walker requests started/completed, data/inst
system.cpu.itb.stage2_mmu.stage2_tlb.walker.requestOrigin_Completed::total            0                       # Table walker requests started/completed, data/inst
system.cpu.itb.stage2_mmu.stage2_tlb.walker.requestOrigin::total            0                       # Table walker requests started/completed, data/inst
system.cpu.itb.stage2_mmu.stage2_tlb.walker.power_state.pwrStateResidencyTicks::UNDEFINED  62781002500                       # Cumulative time (in ticks) in various power states
system.cpu.itb.walker.walks                         0                       # Table walker walks requested
system.cpu.itb.walker.requestOrigin_Requested::Data            0                       # Table walker requests started/completed, data/inst
system.cpu.itb.walker.requestOrigin_Requested::Inst            0                       # Table walker requests started/completed, data/inst
system.cpu.itb.walker.requestOrigin_Requested::total            0                       # Table walker requests started/completed, data/inst
system.cpu.itb.walker.requestOrigin_Completed::Data            0                       # Table walker requests started/completed, data/inst
system.cpu.itb.walker.requestOrigin_Completed::Inst            0                       # Table walker requests started/completed, data/inst
system.cpu.itb.walker.requestOrigin_Completed::total            0                       # Table walker requests started/completed, data/inst
system.cpu.itb.walker.requestOrigin::total            0                       # Table walker requests started/completed, data/inst
system.cpu.itb.walker.power_state.pwrStateResidencyTicks::UNDEFINED  62781002500                       # Cumulative time (in ticks) in various power states
system.cpu.power_state.pwrStateResidencyTicks::ON  62781002500                       # Cumulative time (in ticks) in various power states
system.cpu.thread0.numInsts                 100000001                       # Number of Instructions committed
system.cpu.thread0.numOps                   109431277                       # Number of Ops committed
system.cpu.thread0.numMemRefs                       0                       # Number of Memory References
system.cpu_clk_domain.clock                       500                       # Clock period in ticks
system.cpu_voltage_domain.voltage                   1                       # Voltage in Volts
system.l2.demand_hits::.cpu.inst               534599                       # number of demand (read+write) hits
system.l2.demand_hits::.cpu.data                11604                       # number of demand (read+write) hits
system.l2.demand_hits::total                   546203                       # number of demand (read+write) hits
system.l2.overall_hits::.cpu.inst              534599                       # number of overall hits
system.l2.overall_hits::.cpu.data               11604                       # number of overall hits
system.l2.overall_hits::total                  546203                       # number of overall hits
system.l2.demand_misses::.cpu.inst                524                       # number of demand (read+write) misses
system.l2.demand_misses::.cpu.data              42432                       # number of demand (read+write) misses
system.l2.demand_misses::total                  42956                       # number of demand (read+write) misses
system.l2.overall_misses::.cpu.inst               524                       # number of overall misses
system.l2.overall_misses::.cpu.data             42432                       # number of overall misses
system.l2.overall_misses::total                 42956                       # number of overall misses
system.l2.demand_miss_latency::.cpu.inst     39891000                       # number of demand (read+write) miss cycles
system.l2.demand_miss_latency::.cpu.data   3345160000                       # number of demand (read+write) miss cycles
system.l2.demand_miss_latency::total       3385051000                       # number of demand (read+write) miss cycles
system.l2.overall_miss_latency::.cpu.inst     39891000                       # number of overall miss cycles
system.l2.overall_miss_latency::.cpu.data   3345160000                       # number of overall miss cycles
system.l2.overall_miss_latency::total      3385051000                       # number of overall miss cycles
system.l2.demand_accesses::.cpu.inst           535123                       # number of demand (read+write) accesses
system.l2.demand_accesses::.cpu.data            54036                       # number of demand (read+write) accesses
system.l2.demand_accesses::total               589159                       # number of demand (read+write) accesses
system.l2.overall_accesses::.cpu.inst          535123                       # number of overall (read+write) accesses
system.l2.overall_accesses::.cpu.data           54036                       # number of overall (read+write) accesses
system.l2.overall_accesses::total              589159                       # number of overall (read+write) accesses
system.l2.demand_miss_rate::.cpu.inst        0.000979                       # miss rate for demand accesses
system.l2.demand_miss_rate::.cpu.data        0.785254                       # miss rate for demand accesses
system.l2.demand_miss_rate::total            0.072911                       # miss rate for demand accesses
system.l2.overall_miss_rate::.cpu.inst       0.000979                       # miss rate for overall accesses
system.l2.overall_miss_rate::.cpu.data       0.785254                       # miss rate for overall accesses
system.l2.overall_miss_rate::total           0.072911                       # miss rate for overall accesses
system.l2.demand_avg_miss_latency::.cpu.inst 76127.862595                       # average overall miss latency
system.l2.demand_avg_miss_latency::.cpu.data 78835.784314                       # average overall miss latency
system.l2.demand_avg_miss_latency::total 78802.751653                       # average overall miss latency
system.l2.overall_avg_miss_latency::.cpu.inst 76127.862595                       # average overall miss latency
system.l2.overall_avg_miss_latency::.cpu.data 78835.784314                       # average overall miss latency
system.l2.overall_avg_miss_latency::total 78802.751653                       # average overall miss latency
system.l2.blocked_cycles::no_mshrs                  0                       # number of cycles access was blocked
system.l2.blocked_cycles::no_targets                0                       # number of cycles access was blocked
system.l2.blocked::no_mshrs                         0                       # number of cycles access was blocked
system.l2.blocked::no_targets                       0                       # number of cycles access was blocked
system.l2.avg_blocked_cycles::no_mshrs            nan                       # average number of cycles each access was blocked
system.l2.avg_blocked_cycles::no_targets          nan                       # average number of cycles each access was blocked
system.l2.writebacks::.writebacks               25962                       # number of writebacks
system.l2.writebacks::total                     25962                       # number of writebacks
system.l2.demand_mshr_hits::.cpu.inst               1                       # number of demand (read+write) MSHR hits
system.l2.demand_mshr_hits::.cpu.data               5                       # number of demand (read+write) MSHR hits
system.l2.demand_mshr_hits::total                   6                       # number of demand (read+write) MSHR hits
system.l2.overall_mshr_hits::.cpu.inst              1                       # number of overall MSHR hits
system.l2.overall_mshr_hits::.cpu.data              5                       # number of overall MSHR hits
system.l2.overall_mshr_hits::total                  6                       # number of overall MSHR hits
system.l2.demand_mshr_misses::.cpu.inst           523                       # number of demand (read+write) MSHR misses
system.l2.demand_mshr_misses::.cpu.data         42427                       # number of demand (read+write) MSHR misses
system.l2.demand_mshr_misses::total             42950                       # number of demand (read+write) MSHR misses
system.l2.overall_mshr_misses::.cpu.inst          523                       # number of overall MSHR misses
system.l2.overall_mshr_misses::.cpu.data        42427                       # number of overall MSHR misses
system.l2.overall_mshr_misses::total            42950                       # number of overall MSHR misses
system.l2.demand_mshr_miss_latency::.cpu.inst     34596500                       # number of demand (read+write) MSHR miss cycles
system.l2.demand_mshr_miss_latency::.cpu.data   2920564500                       # number of demand (read+write) MSHR miss cycles
system.l2.demand_mshr_miss_latency::total   2955161000                       # number of demand (read+write) MSHR miss cycles
system.l2.overall_mshr_miss_latency::.cpu.inst     34596500                       # number of overall MSHR miss cycles
system.l2.overall_mshr_miss_latency::.cpu.data   2920564500                       # number of overall MSHR miss cycles
system.l2.overall_mshr_miss_latency::total   2955161000                       # number of overall MSHR miss cycles
system.l2.demand_mshr_miss_rate::.cpu.inst     0.000977                       # mshr miss rate for demand accesses
system.l2.demand_mshr_miss_rate::.cpu.data     0.785162                       # mshr miss rate for demand accesses
system.l2.demand_mshr_miss_rate::total       0.072901                       # mshr miss rate for demand accesses
system.l2.overall_mshr_miss_rate::.cpu.inst     0.000977                       # mshr miss rate for overall accesses
system.l2.overall_mshr_miss_rate::.cpu.data     0.785162                       # mshr miss rate for overall accesses
system.l2.overall_mshr_miss_rate::total      0.072901                       # mshr miss rate for overall accesses
system.l2.demand_avg_mshr_miss_latency::.cpu.inst 66150.095602                       # average overall mshr miss latency
system.l2.demand_avg_mshr_miss_latency::.cpu.data 68837.403069                       # average overall mshr miss latency
system.l2.demand_avg_mshr_miss_latency::total 68804.679860                       # average overall mshr miss latency
system.l2.overall_avg_mshr_miss_latency::.cpu.inst 66150.095602                       # average overall mshr miss latency
system.l2.overall_avg_mshr_miss_latency::.cpu.data 68837.403069                       # average overall mshr miss latency
system.l2.overall_avg_mshr_miss_latency::total 68804.679860                       # average overall mshr miss latency
system.l2.replacements                          26583                       # number of replacements
system.l2.WritebackDirty_hits::.writebacks        49891                       # number of WritebackDirty hits
system.l2.WritebackDirty_hits::total            49891                       # number of WritebackDirty hits
system.l2.WritebackDirty_accesses::.writebacks        49891                       # number of WritebackDirty accesses(hits+misses)
system.l2.WritebackDirty_accesses::total        49891                       # number of WritebackDirty accesses(hits+misses)
system.l2.WritebackClean_hits::.writebacks       534714                       # number of WritebackClean hits
system.l2.WritebackClean_hits::total           534714                       # number of WritebackClean hits
system.l2.WritebackClean_accesses::.writebacks       534714                       # number of WritebackClean accesses(hits+misses)
system.l2.WritebackClean_accesses::total       534714                       # number of WritebackClean accesses(hits+misses)
system.l2.CleanEvict_mshr_misses::.writebacks            5                       # number of CleanEvict MSHR misses
system.l2.CleanEvict_mshr_misses::total             5                       # number of CleanEvict MSHR misses
system.l2.CleanEvict_mshr_miss_rate::.writebacks          inf                       # mshr miss rate for CleanEvict accesses
system.l2.CleanEvict_mshr_miss_rate::total          inf                       # mshr miss rate for CleanEvict accesses
system.l2.ReadExReq_hits::.cpu.data                10                       # number of ReadExReq hits
system.l2.ReadExReq_hits::total                    10                       # number of ReadExReq hits
system.l2.ReadExReq_misses::.cpu.data           38810                       # number of ReadExReq misses
system.l2.ReadExReq_misses::total               38810                       # number of ReadExReq misses
system.l2.ReadExReq_miss_latency::.cpu.data   3017423500                       # number of ReadExReq miss cycles
system.l2.ReadExReq_miss_latency::total    3017423500                       # number of ReadExReq miss cycles
system.l2.ReadExReq_accesses::.cpu.data         38820                       # number of ReadExReq accesses(hits+misses)
system.l2.ReadExReq_accesses::total             38820                       # number of ReadExReq accesses(hits+misses)
system.l2.ReadExReq_miss_rate::.cpu.data     0.999742                       # miss rate for ReadExReq accesses
system.l2.ReadExReq_miss_rate::total         0.999742                       # miss rate for ReadExReq accesses
system.l2.ReadExReq_avg_miss_latency::.cpu.data 77748.608606                       # average ReadExReq miss latency
system.l2.ReadExReq_avg_miss_latency::total 77748.608606                       # average ReadExReq miss latency
system.l2.ReadExReq_mshr_misses::.cpu.data        38810                       # number of ReadExReq MSHR misses
system.l2.ReadExReq_mshr_misses::total          38810                       # number of ReadExReq MSHR misses
system.l2.ReadExReq_mshr_miss_latency::.cpu.data   2629323500                       # number of ReadExReq MSHR miss cycles
system.l2.ReadExReq_mshr_miss_latency::total   2629323500                       # number of ReadExReq MSHR miss cycles
system.l2.ReadExReq_mshr_miss_rate::.cpu.data     0.999742                       # mshr miss rate for ReadExReq accesses
system.l2.ReadExReq_mshr_miss_rate::total     0.999742                       # mshr miss rate for ReadExReq accesses
system.l2.ReadExReq_avg_mshr_miss_latency::.cpu.data 67748.608606                       # average ReadExReq mshr miss latency
system.l2.ReadExReq_avg_mshr_miss_latency::total 67748.608606                       # average ReadExReq mshr miss latency
system.l2.ReadCleanReq_hits::.cpu.inst         534599                       # number of ReadCleanReq hits
system.l2.ReadCleanReq_hits::total             534599                       # number of ReadCleanReq hits
system.l2.ReadCleanReq_misses::.cpu.inst          524                       # number of ReadCleanReq misses
system.l2.ReadCleanReq_misses::total              524                       # number of ReadCleanReq misses
system.l2.ReadCleanReq_miss_latency::.cpu.inst     39891000                       # number of ReadCleanReq miss cycles
system.l2.ReadCleanReq_miss_latency::total     39891000                       # number of ReadCleanReq miss cycles
system.l2.ReadCleanReq_accesses::.cpu.inst       535123                       # number of ReadCleanReq accesses(hits+misses)
system.l2.ReadCleanReq_accesses::total         535123                       # number of ReadCleanReq accesses(hits+misses)
system.l2.ReadCleanReq_miss_rate::.cpu.inst     0.000979                       # miss rate for ReadCleanReq accesses
system.l2.ReadCleanReq_miss_rate::total      0.000979                       # miss rate for ReadCleanReq accesses
system.l2.ReadCleanReq_avg_miss_latency::.cpu.inst 76127.862595                       # average ReadCleanReq miss latency
system.l2.ReadCleanReq_avg_miss_latency::total 76127.862595                       # average ReadCleanReq miss latency
system.l2.ReadCleanReq_mshr_hits::.cpu.inst            1                       # number of ReadCleanReq MSHR hits
system.l2.ReadCleanReq_mshr_hits::total             1                       # number of ReadCleanReq MSHR hits
system.l2.ReadCleanReq_mshr_misses::.cpu.inst          523                       # number of ReadCleanReq MSHR misses
system.l2.ReadCleanReq_mshr_misses::total          523                       # number of ReadCleanReq MSHR misses
system.l2.ReadCleanReq_mshr_miss_latency::.cpu.inst     34596500                       # number of ReadCleanReq MSHR miss cycles
system.l2.ReadCleanReq_mshr_miss_latency::total     34596500                       # number of ReadCleanReq MSHR miss cycles
system.l2.ReadCleanReq_mshr_miss_rate::.cpu.inst     0.000977                       # mshr miss rate for ReadCleanReq accesses
system.l2.ReadCleanReq_mshr_miss_rate::total     0.000977                       # mshr miss rate for ReadCleanReq accesses
system.l2.ReadCleanReq_avg_mshr_miss_latency::.cpu.inst 66150.095602                       # average ReadCleanReq mshr miss latency
system.l2.ReadCleanReq_avg_mshr_miss_latency::total 66150.095602                       # average ReadCleanReq mshr miss latency
system.l2.ReadSharedReq_hits::.cpu.data         11594                       # number of ReadSharedReq hits
system.l2.ReadSharedReq_hits::total             11594                       # number of ReadSharedReq hits
system.l2.ReadSharedReq_misses::.cpu.data         3622                       # number of ReadSharedReq misses
system.l2.ReadSharedReq_misses::total            3622                       # number of ReadSharedReq misses
system.l2.ReadSharedReq_miss_latency::.cpu.data    327736500                       # number of ReadSharedReq miss cycles
system.l2.ReadSharedReq_miss_latency::total    327736500                       # number of ReadSharedReq miss cycles
system.l2.ReadSharedReq_accesses::.cpu.data        15216                       # number of ReadSharedReq accesses(hits+misses)
system.l2.ReadSharedReq_accesses::total         15216                       # number of ReadSharedReq accesses(hits+misses)
system.l2.ReadSharedReq_miss_rate::.cpu.data     0.238039                       # miss rate for ReadSharedReq accesses
system.l2.ReadSharedReq_miss_rate::total     0.238039                       # miss rate for ReadSharedReq accesses
system.l2.ReadSharedReq_avg_miss_latency::.cpu.data 90484.953065                       # average ReadSharedReq miss latency
system.l2.ReadSharedReq_avg_miss_latency::total 90484.953065                       # average ReadSharedReq miss latency
system.l2.ReadSharedReq_mshr_hits::.cpu.data            5                       # number of ReadSharedReq MSHR hits
system.l2.ReadSharedReq_mshr_hits::total            5                       # number of ReadSharedReq MSHR hits
system.l2.ReadSharedReq_mshr_misses::.cpu.data         3617                       # number of ReadSharedReq MSHR misses
system.l2.ReadSharedReq_mshr_misses::total         3617                       # number of ReadSharedReq MSHR misses
system.l2.ReadSharedReq_mshr_miss_latency::.cpu.data    291241000                       # number of ReadSharedReq MSHR miss cycles
system.l2.ReadSharedReq_mshr_miss_latency::total    291241000                       # number of ReadSharedReq MSHR miss cycles
system.l2.ReadSharedReq_mshr_miss_rate::.cpu.data     0.237710                       # mshr miss rate for ReadSharedReq accesses
system.l2.ReadSharedReq_mshr_miss_rate::total     0.237710                       # mshr miss rate for ReadSharedReq accesses
system.l2.ReadSharedReq_avg_mshr_miss_latency::.cpu.data 80520.044236                       # average ReadSharedReq mshr miss latency
system.l2.ReadSharedReq_avg_mshr_miss_latency::total 80520.044236                       # average ReadSharedReq mshr miss latency
system.l2.power_state.pwrStateResidencyTicks::UNDEFINED  62781002500                       # Cumulative time (in ticks) in various power states
system.l2.tags.tagsinuse                 15556.276487                       # Cycle average of tags in use
system.l2.tags.total_refs                     1176854                       # Total number of references to valid blocks.
system.l2.tags.sampled_refs                     42967                       # Sample count of references to valid blocks.
system.l2.tags.avg_refs                     27.389718                       # Average number of references to valid blocks.
system.l2.tags.warmup_cycle                     77000                       # Cycle when the warmup percentage was hit.
system.l2.tags.occ_blocks::.writebacks       6.683562                       # Average occupied blocks per requestor
system.l2.tags.occ_blocks::.cpu.inst        70.623487                       # Average occupied blocks per requestor
system.l2.tags.occ_blocks::.cpu.data     15478.969438                       # Average occupied blocks per requestor
system.l2.tags.occ_percent::.writebacks      0.000408                       # Average percentage of cache occupancy
system.l2.tags.occ_percent::.cpu.inst        0.004311                       # Average percentage of cache occupancy
system.l2.tags.occ_percent::.cpu.data        0.944761                       # Average percentage of cache occupancy
system.l2.tags.occ_percent::total            0.949480                       # Average percentage of cache occupancy
system.l2.tags.occ_task_id_blocks::1024         16384                       # Occupied blocks per task id
system.l2.tags.age_task_id_blocks_1024::0            3                       # Occupied blocks per task id
system.l2.tags.age_task_id_blocks_1024::1           31                       # Occupied blocks per task id
system.l2.tags.age_task_id_blocks_1024::2          475                       # Occupied blocks per task id
system.l2.tags.age_task_id_blocks_1024::3         4104                       # Occupied blocks per task id
system.l2.tags.age_task_id_blocks_1024::4        11771                       # Occupied blocks per task id
system.l2.tags.occ_task_id_percent::1024            1                       # Percentage of cache occupancy per task id
system.l2.tags.tag_accesses                   9457887                       # Number of tag accesses
system.l2.tags.data_accesses                  9457887                       # Number of data accesses
system.l2.tags.power_state.pwrStateResidencyTicks::UNDEFINED  62781002500                       # Cumulative time (in ticks) in various power states
system.mem_ctrls.avgPriority_.writebacks::samples     25962.00                       # Average QoS priority value for accepted requests
system.mem_ctrls.avgPriority_.cpu.inst::samples       523.00                       # Average QoS priority value for accepted requests
system.mem_ctrls.avgPriority_.cpu.data::samples     42422.00                       # Average QoS priority value for accepted requests
system.mem_ctrls.priorityMinLatency      0.000000018750                       # per QoS priority minimum request to response latency (s)
system.mem_ctrls.priorityMaxLatency      0.001800703750                       # per QoS priority maximum request to response latency (s)
system.mem_ctrls.numReadWriteTurnArounds         1446                       # Number of turnarounds from READ to WRITE
system.mem_ctrls.numWriteReadTurnArounds         1446                       # Number of turnarounds from WRITE to READ
system.mem_ctrls.numStayReadState              127703                       # Number of times bus staying in READ state
system.mem_ctrls.numStayWriteState              24569                       # Number of times bus staying in WRITE state
system.mem_ctrls.readReqs                       42950                       # Number of read requests accepted
system.mem_ctrls.writeReqs                      25962                       # Number of write requests accepted
system.mem_ctrls.readBursts                     42950                       # Number of controller read bursts, including those serviced by the write queue
system.mem_ctrls.writeBursts                    25962                       # Number of controller write bursts, including those merged in the write queue
system.mem_ctrls.servicedByWrQ                      5                       # Number of controller read bursts serviced by the write queue
system.mem_ctrls.mergedWrBursts                     0                       # Number of controller write bursts merged with an existing one
system.mem_ctrls.neitherReadNorWriteReqs            0                       # Number of requests that are neither read nor write
system.mem_ctrls.avgRdQLen                       1.04                       # Average read queue length when enqueuing
system.mem_ctrls.avgWrQLen                      22.08                       # Average write queue length when enqueuing
system.mem_ctrls.numRdRetry                         0                       # Number of times read queue was full causing retry
system.mem_ctrls.numWrRetry                         0                       # Number of times write queue was full causing retry
system.mem_ctrls.readPktSize::0                     0                       # Read request sizes (log2)
system.mem_ctrls.readPktSize::1                     0                       # Read request sizes (log2)
system.mem_ctrls.readPktSize::2                     0                       # Read request sizes (log2)
system.mem_ctrls.readPktSize::3                     0                       # Read request sizes (log2)
system.mem_ctrls.readPktSize::4                     0                       # Read request sizes (log2)
system.mem_ctrls.readPktSize::5                     0                       # Read request sizes (log2)
system.mem_ctrls.readPktSize::6                 42950                       # Read request sizes (log2)
system.mem_ctrls.writePktSize::0                    0                       # Write request sizes (log2)
system.mem_ctrls.writePktSize::1                    0                       # Write request sizes (log2)
system.mem_ctrls.writePktSize::2                    0                       # Write request sizes (log2)
system.mem_ctrls.writePktSize::3                    0                       # Write request sizes (log2)
system.mem_ctrls.writePktSize::4                    0                       # Write request sizes (log2)
system.mem_ctrls.writePktSize::5                    0                       # Write request sizes (log2)
system.mem_ctrls.writePktSize::6                25962                       # Write request sizes (log2)
system.mem_ctrls.rdQLenPdf::0                   41689                       # What read queue length does an incoming req see
system.mem_ctrls.rdQLenPdf::1                    1249                       # What read queue length does an incoming req see
[...]
system.mem_ctrls.dram.bw_write::.writebacks     26466095                       # Write bandwidth from this memory (bytes/s)
system.mem_ctrls.dram.bw_write::total        26466095                       # Write bandwidth from this memory (bytes/s)
system.mem_ctrls.dram.bw_total::.writebacks     26466095                       # Total bandwidth to/from this memory (bytes/s)
system.mem_ctrls.dram.bw_total::.cpu.inst       533155                       # Total bandwidth to/from this memory (bytes/s)
system.mem_ctrls.dram.bw_total::.cpu.data     43250791                       # Total bandwidth to/from this memory (bytes/s)
system.mem_ctrls.dram.bw_total::total        70250041                       # Total bandwidth to/from this memory (bytes/s)
system.mem_ctrls.dram.readBursts                42945                       # Number of DRAM read bursts
system.mem_ctrls.dram.writeBursts               25946                       # Number of DRAM write bursts
system.mem_ctrls.dram.perBankRdBursts::0         2742                       # Per bank write bursts
system.mem_ctrls.dram.perBankRdBursts::1         2659                       # Per bank write bursts
system.mem_ctrls.dram.perBankRdBursts::2         2676                       # Per bank write bursts
system.mem_ctrls.dram.perBankRdBursts::3         2782                       # Per bank write bursts
system.mem_ctrls.dram.perBankRdBursts::4         2669                       # Per bank write bursts
system.mem_ctrls.dram.perBankRdBursts::5         2536                       # Per bank write bursts
system.mem_ctrls.dram.perBankRdBursts::6         2644                       # Per bank write bursts
system.mem_ctrls.dram.perBankRdBursts::7         2715                       # Per bank write bursts
system.mem_ctrls.dram.perBankRdBursts::8         2632                       # Per bank write bursts
system.mem_ctrls.dram.perBankRdBursts::9         2695                       # Per bank write bursts
system.mem_ctrls.dram.perBankRdBursts::10         2719                       # Per bank write bursts
system.mem_ctrls.dram.perBankRdBursts::11         2691                       # Per bank write bursts
system.mem_ctrls.dram.perBankRdBursts::12         2686                       # Per bank write bursts
system.mem_ctrls.dram.perBankRdBursts::13         2709                       # Per bank write bursts
system.mem_ctrls.dram.perBankRdBursts::14         2697                       # Per bank write bursts
system.mem_ctrls.dram.perBankRdBursts::15         2693                       # Per bank write bursts
system.mem_ctrls.dram.perBankWrBursts::0         1669                       # Per bank write bursts
system.mem_ctrls.dram.perBankWrBursts::1         1592                       # Per bank write bursts
system.mem_ctrls.dram.perBankWrBursts::2         1634                       # Per bank write bursts
system.mem_ctrls.dram.perBankWrBursts::3         1676                       # Per bank write bursts
system.mem_ctrls.dram.perBankWrBursts::4         1607                       # Per bank write bursts
system.mem_ctrls.dram.perBankWrBursts::5         1509                       # Per bank write bursts
system.mem_ctrls.dram.perBankWrBursts::6         1621                       # Per bank write bursts
system.mem_ctrls.dram.perBankWrBursts::7         1669                       # Per bank write bursts
system.mem_ctrls.dram.perBankWrBursts::8         1580                       # Per bank write bursts
system.mem_ctrls.dram.perBankWrBursts::9         1624                       # Per bank write bursts
system.mem_ctrls.dram.perBankWrBursts::10         1655                       # Per bank write bursts
system.mem_ctrls.dram.perBankWrBursts::11         1603                       # Per bank write bursts
system.mem_ctrls.dram.perBankWrBursts::12         1610                       # Per bank write bursts
system.mem_ctrls.dram.perBankWrBursts::13         1659                       # Per bank write bursts
system.mem_ctrls.dram.perBankWrBursts::14         1599                       # Per bank write bursts
system.mem_ctrls.dram.perBankWrBursts::15         1639                       # Per bank write bursts
system.mem_ctrls.dram.totQLat               388212000                       # Total ticks spent queuing
system.mem_ctrls.dram.totBusLat             214725000                       # Total ticks spent in databus transfers
system.mem_ctrls.dram.totMemAccLat         1193430750                       # Total ticks spent from burst creation until serviced by the DRAM
system.mem_ctrls.dram.avgQLat                 9039.75                       # Average queueing delay per DRAM burst
system.mem_ctrls.dram.avgBusLat               5000.00                       # Average bus latency per DRAM burst
system.mem_ctrls.dram.avgMemAccLat           27789.75                       # Average memory access latency per DRAM burst
system.mem_ctrls.dram.readRowHits               28687                       # Number of row buffer hits during reads
system.mem_ctrls.dram.writeRowHits              19323                       # Number of row buffer hits during writes
system.mem_ctrls.dram.readRowHitRate            66.80                       # Row buffer hit rate for reads
system.mem_ctrls.dram.writeRowHitRate           74.47                       # Row buffer hit rate for writes
system.mem_ctrls.dram.bytesPerActivate::samples        20881                       # Bytes accessed per row activation
system.mem_ctrls.dram.bytesPerActivate::mean   211.150041                       # Bytes accessed per row activation
system.mem_ctrls.dram.bytesPerActivate::gmean   145.131455                       # Bytes accessed per row activation
system.mem_ctrls.dram.bytesPerActivate::stdev   220.554776                       # Bytes accessed per row activation
system.mem_ctrls.dram.bytesPerActivate::0-127         7960     38.12%     38.12% # Bytes accessed per row activation
system.mem_ctrls.dram.bytesPerActivate::128-255         8476     40.59%     78.71% # Bytes accessed per row activation
system.mem_ctrls.dram.bytesPerActivate::256-383         1324      6.34%     85.05% # Bytes accessed per row activation
system.mem_ctrls.dram.bytesPerActivate::384-511          656      3.14%     88.20% # Bytes accessed per row activation
system.mem_ctrls.dram.bytesPerActivate::512-639          751      3.60%     91.79% # Bytes accessed per row activation
system.mem_ctrls.dram.bytesPerActivate::640-767          497      2.38%     94.17% # Bytes accessed per row activation
system.mem_ctrls.dram.bytesPerActivate::768-895          442      2.12%     96.29% # Bytes accessed per row activation
system.mem_ctrls.dram.bytesPerActivate::896-1023          447      2.14%     98.43% # Bytes accessed per row activation
system.mem_ctrls.dram.bytesPerActivate::1024-1151          328      1.57%    100.00% # Bytes accessed per row activation
system.mem_ctrls.dram.bytesPerActivate::total        20881                       # Bytes accessed per row activation
system.mem_ctrls.dram.bytesRead               2748480                       # Total number of bytes read from DRAM
system.mem_ctrls.dram.bytesWritten            1660544                       # Total number of bytes written to DRAM
system.mem_ctrls.dram.avgRdBW               43.778849                       # Average DRAM read bandwidth in MiBytes/s
system.mem_ctrls.dram.avgWrBW               26.449785                       # Average DRAM write bandwidth in MiBytes/s
system.mem_ctrls.dram.peakBW                 12800.00                       # Theoretical peak bandwidth in MiByte/s
system.mem_ctrls.dram.busUtil                    0.55                       # Data bus utilization in percentage
system.mem_ctrls.dram.busUtilRead                0.34                       # Data bus utilization in percentage for reads
system.mem_ctrls.dram.busUtilWrite               0.21                       # Data bus utilization in percentage for writes
system.mem_ctrls.dram.pageHitRate               69.69                       # Row buffer hit rate, read and write combined
system.mem_ctrls.dram.power_state.pwrStateResidencyTicks::UNDEFINED  62781002500                       # Cumulative time (in ticks) in various power states
system.mem_ctrls.dram.rank0.actEnergy        76076700                       # Energy for activate commands per rank (pJ)
system.mem_ctrls.dram.rank0.preEnergy        40435725                       # Energy for precharge commands per rank (pJ)
system.mem_ctrls.dram.rank0.readEnergy      152960220                       # Energy for read commands per rank (pJ)
system.mem_ctrls.dram.rank0.writeEnergy      67739940                       # Energy for write commands per rank (pJ)
system.mem_ctrls.dram.rank0.refreshEnergy 4955842320.000001                       # Energy for refresh commands per rank (pJ)
system.mem_ctrls.dram.rank0.actBackEnergy  14686525950                       # Energy for active background per rank (pJ)
system.mem_ctrls.dram.rank0.preBackEnergy  11740304160                       # Energy for precharge background per rank (pJ)
system.mem_ctrls.dram.rank0.actPowerDownEnergy            0                       # Energy for active power-down per rank (pJ)
system.mem_ctrls.dram.rank0.prePowerDownEnergy            0                       # Energy for precharge power-down per rank (pJ)
system.mem_ctrls.dram.rank0.selfRefreshEnergy            0                       # Energy for self refresh per rank (pJ)
system.mem_ctrls.dram.rank0.totalEnergy   31719885015                       # Total energy per rank (pJ)
system.mem_ctrls.dram.rank0.averagePower   505.246552                       # Core power per rank (mW)
system.mem_ctrls.dram.rank0.totalIdleTime            0                       # Total Idle time Per DRAM Rank
system.mem_ctrls.dram.rank0.pwrStateTime::IDLE  30379303500                       # Time in different power states
system.mem_ctrls.dram.rank0.pwrStateTime::REF   2096380000                       # Time in different power states
system.mem_ctrls.dram.rank0.pwrStateTime::SREF            0                       # Time in different power states
system.mem_ctrls.dram.rank0.pwrStateTime::PRE_PDN            0                       # Time in different power states
system.mem_ctrls.dram.rank0.pwrStateTime::ACT  30305319000                       # Time in different power states
system.mem_ctrls.dram.rank0.pwrStateTime::ACT_PDN            0                       # Time in different power states
system.mem_ctrls.dram.rank1.actEnergy        73013640                       # Energy for activate commands per rank (pJ)
system.mem_ctrls.dram.rank1.preEnergy        38807670                       # Energy for precharge commands per rank (pJ)
system.mem_ctrls.dram.rank1.readEnergy      153667080                       # Energy for read commands per rank (pJ)
system.mem_ctrls.dram.rank1.writeEnergy      67698180                       # Energy for write commands per rank (pJ)
system.mem_ctrls.dram.rank1.refreshEnergy 4955842320.000001                       # Energy for refresh commands per rank (pJ)
system.mem_ctrls.dram.rank1.actBackEnergy  14559247230                       # Energy for active background per rank (pJ)
system.mem_ctrls.dram.rank1.preBackEnergy  11847486240                       # Energy for precharge background per rank (pJ)
system.mem_ctrls.dram.rank1.actPowerDownEnergy            0                       # Energy for active power-down per rank (pJ)
system.mem_ctrls.dram.rank1.prePowerDownEnergy            0                       # Energy for precharge power-down per rank (pJ)
system.mem_ctrls.dram.rank1.selfRefreshEnergy            0                       # Energy for self refresh per rank (pJ)
system.mem_ctrls.dram.rank1.totalEnergy   31695762360                       # Total energy per rank (pJ)
system.mem_ctrls.dram.rank1.averagePower   504.862317                       # Core power per rank (mW)
system.mem_ctrls.dram.rank1.totalIdleTime            0                       # Total Idle time Per DRAM Rank
system.mem_ctrls.dram.rank1.pwrStateTime::IDLE  30659050500                       # Time in different power states
system.mem_ctrls.dram.rank1.pwrStateTime::REF   2096380000                       # Time in different power states
system.mem_ctrls.dram.rank1.pwrStateTime::SREF            0                       # Time in different power states
system.mem_ctrls.dram.rank1.pwrStateTime::PRE_PDN            0                       # Time in different power states
system.mem_ctrls.dram.rank1.pwrStateTime::ACT  30025572000                       # Time in different power states
system.mem_ctrls.dram.rank1.pwrStateTime::ACT_PDN            0                       # Time in different power states
system.mem_ctrls.power_state.pwrStateResidencyTicks::UNDEFINED  62781002500                       # Cumulative time (in ticks) in various power states
system.membus.trans_dist::ReadResp               4140                       # Transaction distribution
system.membus.trans_dist::WritebackDirty        25962                       # Transaction distribution
system.membus.trans_dist::CleanEvict              187                       # Transaction distribution
system.membus.trans_dist::ReadExReq             38810                       # Transaction distribution
system.membus.trans_dist::ReadExResp            38810                       # Transaction distribution
system.membus.trans_dist::ReadSharedReq          4140                       # Transaction distribution
system.membus.pkt_count_system.l2.mem_side_port::system.mem_ctrls.port       112049                       # Packet count per connected requestor and responder (bytes)
system.membus.pkt_count::total                 112049                       # Packet count per connected requestor and responder (bytes)
system.membus.pkt_size_system.l2.mem_side_port::system.mem_ctrls.port      4410368                       # Cumulative packet size per connected requestor and responder (bytes)
system.membus.pkt_size::total                 4410368                       # Cumulative packet size per connected requestor and responder (bytes)
system.membus.snoops                                0                       # Total snoops (count)
system.membus.snoopTraffic                          0                       # Total snoop traffic (bytes)
system.membus.snoop_fanout::samples             42950                       # Request fanout histogram
system.membus.snoop_fanout::mean                    0                       # Request fanout histogram
system.membus.snoop_fanout::stdev                   0                       # Request fanout histogram
system.membus.snoop_fanout::underflows              0      0.00%      0.00% # Request fanout histogram
system.membus.snoop_fanout::0                   42950    100.00%    100.00% # Request fanout histogram
system.membus.snoop_fanout::1                       0      0.00%    100.00% # Request fanout histogram
system.membus.snoop_fanout::overflows               0      0.00%    100.00% # Request fanout histogram
system.membus.snoop_fanout::min_value               0                       # Request fanout histogram
system.membus.snoop_fanout::max_value               0                       # Request fanout histogram
system.membus.snoop_fanout::total               42950                       # Request fanout histogram
system.membus.power_state.pwrStateResidencyTicks::UNDEFINED  62781002500                       # Cumulative time (in ticks) in various power states
system.membus.reqLayer0.occupancy           180754500                       # Layer occupancy (ticks)
system.membus.reqLayer0.utilization               0.3                       # Layer utilization (%)
system.membus.respLayer1.occupancy          229212000                       # Layer occupancy (ticks)
system.membus.respLayer1.utilization              0.4                       # Layer utilization (%)
system.tol2bus.trans_dist::ReadResp            550339                       # Transaction distribution
system.tol2bus.trans_dist::WritebackDirty        75853                       # Transaction distribution
system.tol2bus.trans_dist::WritebackClean       534721                       # Transaction distribution
system.tol2bus.trans_dist::CleanEvict            3742                       # Transaction distribution
system.tol2bus.trans_dist::ReadExReq            38820                       # Transaction distribution
system.tol2bus.trans_dist::ReadExResp           38820                       # Transaction distribution
system.tol2bus.trans_dist::ReadCleanReq        535123                       # Transaction distribution
system.tol2bus.trans_dist::ReadSharedReq        15216                       # Transaction distribution
system.tol2bus.pkt_count_system.cpu.icache.mem_side_port::system.l2.cpu_side_port      1604967                       # Packet count per connected requestor and responder (bytes)
system.tol2bus.pkt_count_system.cpu.dcache.mem_side_port::system.l2.cpu_side_port       161084                       # Packet count per connected requestor and responder (bytes)
system.tol2bus.pkt_count::total               1766051                       # Packet count per connected requestor and responder (bytes)
system.tol2bus.pkt_size_system.cpu.icache.mem_side_port::system.l2.cpu_side_port     68470016                       # Cumulative packet size per connected requestor and responder (bytes)
system.tol2bus.pkt_size_system.cpu.dcache.mem_side_port::system.l2.cpu_side_port      6651328                       # Cumulative packet size per connected requestor and responder (bytes)
system.tol2bus.pkt_size::total               75121344                       # Cumulative packet size per connected requestor and responder (bytes)
system.tol2bus.snoops                           26583                       # Total snoops (count)
system.tol2bus.snoopTraffic                   1661568                       # Total snoop traffic (bytes)
system.tol2bus.snoop_fanout::samples           615742                       # Request fanout histogram
system.tol2bus.snoop_fanout::mean            0.000770                       # Request fanout histogram
system.tol2bus.snoop_fanout::stdev           0.027968                       # Request fanout histogram
system.tol2bus.snoop_fanout::underflows             0      0.00%      0.00% # Request fanout histogram
system.tol2bus.snoop_fanout::0                 615272     99.92%     99.92% # Request fanout histogram
system.tol2bus.snoop_fanout::1                    466      0.08%    100.00% # Request fanout histogram
system.tol2bus.snoop_fanout::2                      4      0.00%    100.00% # Request fanout histogram
system.tol2bus.snoop_fanout::overflows              0      0.00%    100.00% # Request fanout histogram
system.tol2bus.snoop_fanout::min_value              0                       # Request fanout histogram
system.tol2bus.snoop_fanout::max_value              2                       # Request fanout histogram
system.tol2bus.snoop_fanout::total             615742                       # Request fanout histogram
system.tol2bus.power_state.pwrStateResidencyTicks::UNDEFINED  62781002500                       # Cumulative time (in ticks) in various power states
system.tol2bus.reqLayer0.occupancy         1173058000                       # Layer occupancy (ticks)
system.tol2bus.reqLayer0.utilization              1.9                       # Layer utilization (%)
system.tol2bus.respLayer0.occupancy         802684999                       # Layer occupancy (ticks)
system.tol2bus.respLayer0.utilization             1.3                       # Layer utilization (%)
system.tol2bus.respLayer1.occupancy          81056495                       # Layer occupancy (ticks)
system.tol2bus.respLayer1.utilization             0.1                       # Layer utilization (%)
system.voltage_domain.voltage                       1                       # Voltage in Volts

---------- End Simulation Statistics   ----------
