
---------- Begin Simulation Statistics ----------
final_tick                                62554913500                       # Number of ticks from beginning of simulation (restored from checkpoints and never reset)
host_inst_rate                                 389207                       # Simulator instruction rate (inst/s)
host_mem_usage                                 668512                       # Number of bytes of host memory used
host_op_rate                                   425914                       # Simulator op (including micro ops) rate (op/s)
host_seconds                                   256.93                       # Real time elapsed on the host
host_tick_rate                              243467723                       # Simulator tick rate (ticks/s)
sim_freq                                 1000000000000                       # Frequency of simulated ticks
sim_insts                                   100000001                       # Number of instructions simulated
sim_ops                                     109431277                       # Number of ops (including micro ops) simulated
sim_seconds                                  0.062555                       # Number of seconds simulated
sim_ticks                                 62554913500                       # Number of ticks simulated
system.cpu.committedInsts                   100000001                       # Number of instructions committed
system.cpu.committedOps                     109431277                       # Number of ops (including micro ops) committed
system.cpu.cpi                               1.251098                       # CPI: cycles per instruction
system.cpu.discardedOps                        376466                       # Number of ops (including micro ops) which were discarded before commit
system.cpu.idleCycles                        10551223                       # Total number of cycles that the object has spent stopped
system.cpu.ipc                               0.799298                       # IPC: instructions per cycle
system.cpu.numCycles                        125109827                       # number of cpu cycles simulated
system.cpu.numFetchSuspends                         0                       # Number of times Execute suspended instruction fetching
system.cpu.numWorkItemsCompleted                    0                       # number of work items this cpu completed
system.cpu.numWorkItemsStarted                      0                       # number of work items this cpu started
system.cpu.op_class_0::No_OpClass                   0      0.00%      0.00% # Class of committed instruction
system.cpu.op_class_0::IntAlu                72955010     66.67%     66.67% # Class of committed instruction
system.cpu.op_class_0::IntMult                 568364      0.52%     67.19% # Class of committed instruction
system.cpu.op_class_0::IntDiv                       0      0.00%     67.19% # Class of committed instruction
system.cpu.op_class_0::FloatAdd                     0      0.00%     67.19% # Class of committed instruction
system.cpu.op_class_0::FloatCmp                     0      0.00%     67.19% # Class of committed instruction
system.cpu.op_class_0::FloatCvt                     0      0.00%     67.19% # Class of committed instruction
system.cpu.op_class_0::FloatMult                    0      0.00%     67.19% # Class of committed instruction
system.cpu.op_class_0::FloatMultAcc                 0      0.00%     67.19% # Class of committed instruction
system.cpu.op_class_0::FloatDiv                     0      0.00%     67.19% # Class of committed instruction
system.cpu.op_class_0::FloatMisc                    0      0.00%     67.19% # Class of committed instruction
system.cpu.op_class_0::FloatSqrt                    0      0.00%     67.19% # Class of committed instruction
system.cpu.op_class_0::SimdAdd                 241336      0.22%     67.41% # Class of committed instruction
system.cpu.op_class_0::SimdAddAcc                   0      0.00%     67.41% # Class of committed instruction
system.cpu.op_class_0::SimdAlu                 154628      0.14%     67.55% # Class of committed instruction
system.cpu.op_class_0::SimdCmp                 120668      0.11%     67.66% # Class of committed instruction
system.cpu.op_class_0::SimdCvt                      0      0.00%     67.66% # Class of committed instruction
system.cpu.op_class_0::SimdMisc                 44543      0.04%     67.70% # Class of committed instruction
system.cpu.op_class_0::SimdMult                     0      0.00%     67.70% # Class of committed instruction
system.cpu.op_class_0::SimdMultAcc                  0      0.00%     67.70% # Class of committed instruction
system.cpu.op_class_0::SimdShift                    0      0.00%     67.70% # Class of committed instruction
system.cpu.op_class_0::SimdShiftAcc                 0      0.00%     67.70% # Class of committed instruction
system.cpu.op_class_0::SimdDiv                      0      0.00%     67.70% # Class of committed instruction
system.cpu.op_class_0::SimdSqrt                     0      0.00%     67.70% # Class of committed instruction
system.cpu.op_class_0::SimdFloatAdd                 0      0.00%     67.70% # Class of committed instruction
system.cpu.op_class_0::SimdFloatAlu                 0      0.00%     67.70% # Class of committed instruction
system.cpu.op_class_0::SimdFloatCmp                 0      0.00%     67.70% # Class of committed instruction
system.cpu.op_class_0::SimdFloatCvt                 0      0.00%     67.70% # Class of committed instruction
system.cpu.op_class_0::SimdFloatDiv                 0      0.00%     67.70% # Class of committed instruction
system.cpu.op_class_0::SimdFloatMisc           166417      0.15%     67.85% # Class of committed instruction
system.cpu.op_class_0::SimdFloatMult                0      0.00%     67.85% # Class of committed instruction
system.cpu.op_class_0::SimdFloatMultAcc             0      0.00%     67.85% # Class of committed instruction
system.cpu.op_class_0::SimdFloatSqrt                0      0.00%     67.85% # Class of committed instruction
system.cpu.op_class_0::SimdReduceAdd                0      0.00%     67.85% # Class of committed instruction
system.cpu.op_class_0::SimdReduceAlu                0      0.00%     67.85% # Class of committed instruction
system.cpu.op_class_0::SimdReduceCmp                0      0.00%     67.85% # Class of committed instruction
system.cpu.op_class_0::SimdFloatReduceAdd            0      0.00%     67.85% # Class of committed instruction
system.cpu.op_class_0::SimdFloatReduceCmp            0      0.00%     67.85% # Class of committed instruction
system.cpu.op_class_0::SimdAes                      0      0.00%     67.85% # Class of committed instruction
system.cpu.op_class_0::SimdAesMix                   0      0.00%     67.85% # Class of committed instruction
system.cpu.op_class_0::SimdSha1Hash                 0      0.00%     67.85% # Class of committed instruction
system.cpu.op_class_0::SimdSha1Hash2                0      0.00%     67.85% # Class of committed instruction
system.cpu.op_class_0::SimdSha256Hash               0      0.00%     67.85% # Class of committed instruction
system.cpu.op_class_0::SimdSha256Hash2              0      0.00%     67.85% # Class of committed instruction
system.cpu.op_class_0::SimdShaSigma2                0      0.00%     67.85% # Class of committed instruction
system.cpu.op_class_0::SimdShaSigma3                0      0.00%     67.85% # Class of committed instruction
system.cpu.op_class_0::SimdPredAlu                  0      0.00%     67.85% # Class of committed instruction
system.cpu.op_class_0::MemRead               20645992     18.87%     86.72% # Class of committed instruction
system.cpu.op_class_0::MemWrite              14534319     13.28%    100.00% # Class of committed instruction
system.cpu.op_class_0::FloatMemRead                 0      0.00%    100.00% # Class of committed instruction
system.cpu.op_class_0::FloatMemWrite                0      0.00%    100.00% # Class of committed instruction
system.cpu.op_class_0::IprAccess                    0      0.00%    100.00% # Class of committed instruction
system.cpu.op_class_0::InstPrefetch                 0      0.00%    100.00% # Class of committed instruction
system.cpu.op_class_0::total                109431277                       # Class of committed instruction
system.cpu.tickCycles                       114558604                       # Number of cycles that the object actually ticked
system.cpu.workload.numSyscalls                    87                       # Number of system calls
system.membus.snoop_filter.hit_multi_requests            0                       # Number of requests hitting in the snoop filter with multiple (>1) holders of the requested data.
system.membus.snoop_filter.hit_multi_snoops            0                       # Number of snoops hitting in the snoop filter with multiple (>1) holders of the requested data.
system.membus.snoop_filter.hit_single_requests         6741                       # Number of requests hitting in the snoop filter with a single holder of the requested data.
system.membus.snoop_filter.hit_single_snoops            0                       # Number of snoops hitting in the snoop filter with a single holder of the requested data.
system.membus.snoop_filter.tot_requests         46649                       # Total number of requests made to the snoop filter.
system.membus.snoop_filter.tot_snoops               0                       # Total number of snoops made to the snoop filter.
system.tol2bus.snoop_filter.hit_multi_requests           27                       # Number of requests hitting in the snoop filter with multiple (>1) holders of the requested data.
system.tol2bus.snoop_filter.hit_multi_snoops            4                       # Number of snoops hitting in the snoop filter with multiple (>1) holders of the requested data.
system.tol2bus.snoop_filter.hit_single_requests       587736                       # Number of requests hitting in the snoop filter with a single holder of the requested data.
system.tol2bus.snoop_filter.hit_single_snoops          418                       # Number of snoops hitting in the snoop filter with a single holder of the requested data.
system.tol2bus.snoop_filter.tot_requests      1176890                       # Total number of requests made to the snoop filter.
system.tol2bus.snoop_filter.tot_snoops            422                       # Total number of snoops made to the snoop filter.
system.clk_domain.clock                          1000                       # Clock period in ticks
system.cpu.branchPred.lookups                20360236                       # Number of BP lookups
system.cpu.branchPred.condPredicted          16297474                       # Number of conditional branches predicted
system.cpu.branchPred.condIncorrect             53386                       # Number of conditional branches incorrect
system.cpu.branchPred.BTBLookups              8737472                       # Number of BTB lookups
system.cpu.branchPred.BTBHits                 8736078                       # Number of BTB hits
system.cpu.branchPred.BTBHitPct             99.984046                       # BTB Hit Percentage
system.cpu.branchPred.RASUsed                 1050570                       # Number of times the RAS was used to get a target.
system.cpu.branchPred.RASIncorrect                325                       # Number of incorrect RAS predictions.
system.cpu.branchPred.indirectLookups          434000                       # Number of indirect predictor lookups.
system.cpu.branchPred.indirectHits             300030                       # Number of indirect target hits.
system.cpu.branchPred.indirectMisses           133970                       # Number of indirect misses.
system.cpu.branchPred.indirectMispredicted         1037                       # Number of mispredicted indirect branches.
system.cpu.dcache.demand_hits::.cpu.data     35612571                       # number of demand (read+write) hits
system.cpu.dcache.demand_hits::total         35612571                       # number of demand (read+write) hits
system.cpu.dcache.overall_hits::.cpu.data     35615890                       # number of overall hits
system.cpu.dcache.overall_hits::total        35615890                       # number of overall hits
system.cpu.dcache.demand_misses::.cpu.data        73567                       # number of demand (read+write) misses
system.cpu.dcache.demand_misses::total          73567                       # number of demand (read+write) misses
system.cpu.dcache.overall_misses::.cpu.data        73609                       # number of overall misses
system.cpu.dcache.overall_misses::total         73609                       # number of overall misses
system.cpu.dcache.demand_miss_latency::.cpu.data   4398474000                       # number of demand (read+write) miss cycles
system.cpu.dcache.demand_miss_latency::total   4398474000                       # number of demand (read+write) miss cycles
system.cpu.dcache.overall_miss_latency::.cpu.data   4398474000                       # number of overall miss cycles
system.cpu.dcache.overall_miss_latency::total   4398474000                       # number of overall miss cycles
system.cpu.dcache.demand_accesses::.cpu.data     35686138                       # number of demand (read+write) accesses
system.cpu.dcache.demand_accesses::total     35686138                       # number of demand (read+write) accesses
system.cpu.dcache.overall_accesses::.cpu.data     35689499                       # number of overall (read+write) accesses
system.cpu.dcache.overall_accesses::total     35689499                       # number of overall (read+write) accesses
system.cpu.dcache.demand_miss_rate::.cpu.data     0.002062                       # miss rate for demand accesses
system.cpu.dcache.demand_miss_rate::total     0.002062                       # miss rate for demand accesses
system.cpu.dcache.overall_miss_rate::.cpu.data     0.002062                       # miss rate for overall accesses
system.cpu.dcache.overall_miss_rate::total     0.002062                       # miss rate for overall accesses
system.cpu.dcache.demand_avg_miss_latency::.cpu.data 59788.682426                       # average overall miss latency
system.cpu.dcache.demand_avg_miss_latency::total 59788.682426                       # average overall miss latency
system.cpu.dcache.overall_avg_miss_latency::.cpu.data 59754.568056                       # average overall miss latency
system.cpu.dcache.overall_avg_miss_latency::total 59754.568056                       # average overall miss latency
system.cpu.dcache.blocked_cycles::no_mshrs            0                       # number of cycles access was blocked
system.cpu.dcache.blocked_cycles::no_targets            0                       # number of cycles access was blocked
system.cpu.dcache.blocked::no_mshrs                 0                       # number of cycles access was blocked
system.cpu.dcache.blocked::no_targets               0                       # number of cycles access was blocked
system.cpu.dcache.avg_blocked_cycles::no_mshrs          nan                       # average number of cycles each access was blocked
system.cpu.dcache.avg_blocked_cycles::no_targets          nan                       # average number of cycles each access was blocked
system.cpu.dcache.writebacks::.writebacks        49913                       # number of writebacks
system.cpu.dcache.writebacks::total             49913                       # number of writebacks
system.cpu.dcache.demand_mshr_hits::.cpu.data        19569                       # number of demand (read+write) MSHR hits
system.cpu.dcache.demand_mshr_hits::total        19569                       # number of demand (read+write) MSHR hits
system.cpu.dcache.overall_mshr_hits::.cpu.data        19569                       # number of overall MSHR hits
system.cpu.dcache.overall_mshr_hits::total        19569                       # number of overall MSHR hits
system.cpu.dcache.demand_mshr_misses::.cpu.data        53998                       # number of demand (read+write) MSHR misses
system.cpu.dcache.demand_mshr_misses::total        53998                       # number of demand (read+write) MSHR misses
system.cpu.dcache.overall_mshr_misses::.cpu.data        54035                       # number of overall MSHR misses
system.cpu.dcache.overall_mshr_misses::total        54035                       # number of overall MSHR misses
system.cpu.dcache.demand_mshr_miss_latency::.cpu.data   3282464000                       # number of demand (read+write) MSHR miss cycles
system.cpu.dcache.demand_mshr_miss_latency::total   3282464000                       # number of demand (read+write) MSHR miss cycles
system.cpu.dcache.overall_mshr_miss_latency::.cpu.data   3283770000                       # number of overall MSHR miss cycles
system.cpu.dcache.overall_mshr_miss_latency::total   3283770000                       # number of overall MSHR miss cycles
system.cpu.dcache.demand_mshr_miss_rate::.cpu.data     0.001513                       # mshr miss rate for demand accesses
system.cpu.dcache.demand_mshr_miss_rate::total     0.001513                       # mshr miss rate for demand accesses
system.cpu.dcache.overall_mshr_miss_rate::.cpu.data     0.001514                       # mshr miss rate for overall accesses
system.cpu.dcache.overall_mshr_miss_rate::total     0.001514                       # mshr miss rate for overall accesses
system.cpu.dcache.demand_avg_mshr_miss_latency::.cpu.data 60788.621801                       # average overall mshr miss latency
system.cpu.dcache.demand_avg_mshr_miss_latency::total 60788.621801                       # average overall mshr miss latency
system.cpu.dcache.overall_avg_mshr_miss_latency::.cpu.data 60771.166836                       # average overall mshr miss latency
system.cpu.dcache.overall_avg_mshr_miss_latency::total 60771.166836                       # average overall mshr miss latency
system.cpu.dcache.replacements                  53011                       # number of replacements
system.cpu.dcache.ReadReq_hits::.cpu.data     21413647                       # number of ReadReq hits
system.cpu.dcache.ReadReq_hits::total        21413647                       # number of ReadReq hits
system.cpu.dcache.ReadReq_misses::.cpu.data        18223                       # number of ReadReq misses
system.cpu.dcache.ReadReq_misses::total         18223                       # number of ReadReq misses
system.cpu.dcache.ReadReq_miss_latency::.cpu.data    292630000                       # number of ReadReq miss cycles
system.cpu.dcache.ReadReq_miss_latency::total    292630000                       # number of ReadReq miss cycles
system.cpu.dcache.ReadReq_accesses::.cpu.data     21431870                       # number of ReadReq accesses(hits+misses)
system.cpu.dcache.ReadReq_accesses::total     21431870                       # number of ReadReq accesses(hits+misses)
system.cpu.dcache.ReadReq_miss_rate::.cpu.data     0.000850                       # miss rate for ReadReq accesses
system.cpu.dcache.ReadReq_miss_rate::total     0.000850                       # miss rate for ReadReq accesses
system.cpu.dcache.ReadReq_avg_miss_latency::.cpu.data 16058.278000                       # average ReadReq miss latency
system.cpu.dcache.ReadReq_avg_miss_latency::total 16058.278000                       # average ReadReq miss latency
system.cpu.dcache.ReadReq_mshr_hits::.cpu.data         3044                       # number of ReadReq MSHR hits
system.cpu.dcache.ReadReq_mshr_hits::total         3044                       # number of ReadReq MSHR hits
system.cpu.dcache.ReadReq_mshr_misses::.cpu.data        15179                       # number of ReadReq MSHR misses
system.cpu.dcache.ReadReq_mshr_misses::total        15179                       # number of ReadReq MSHR misses
system.cpu.dcache.ReadReq_mshr_miss_latency::.cpu.data    226043500                       # number of ReadReq MSHR miss cycles
system.cpu.dcache.ReadReq_mshr_miss_latency::total    226043500                       # number of ReadReq MSHR miss cycles
system.cpu.dcache.ReadReq_mshr_miss_rate::.cpu.data     0.000708                       # mshr miss rate for ReadReq accesses
system.cpu.dcache.ReadReq_mshr_miss_rate::total     0.000708                       # mshr miss rate for ReadReq accesses
system.cpu.dcache.ReadReq_avg_mshr_miss_latency::.cpu.data 14891.857171                       # average ReadReq mshr miss latency
system.cpu.dcache.ReadReq_avg_mshr_miss_latency::total 14891.857171                       # average ReadReq mshr miss latency
system.cpu.dcache.WriteReq_hits::.cpu.data     14198924                       # number of WriteReq hits
system.cpu.dcache.WriteReq_hits::total       14198924                       # number of WriteReq hits
system.cpu.dcache.WriteReq_misses::.cpu.data        55344                       # number of WriteReq misses
system.cpu.dcache.WriteReq_misses::total        55344                       # number of WriteReq misses
system.cpu.dcache.WriteReq_miss_latency::.cpu.data   4105844000                       # number of WriteReq miss cycles
system.cpu.dcache.WriteReq_miss_latency::total   4105844000                       # number of WriteReq miss cycles
system.cpu.dcache.WriteReq_accesses::.cpu.data     14254268                       # number of WriteReq accesses(hits+misses)
system.cpu.dcache.WriteReq_accesses::total     14254268                       # number of WriteReq accesses(hits+misses)
system.cpu.dcache.WriteReq_miss_rate::.cpu.data     0.003883                       # miss rate for WriteReq accesses
system.cpu.dcache.WriteReq_miss_rate::total     0.003883                       # miss rate for WriteReq accesses
system.cpu.dcache.WriteReq_avg_miss_latency::.cpu.data 74187.698757                       # average WriteReq miss latency
system.cpu.dcache.WriteReq_avg_miss_latency::total 74187.698757                       # average WriteReq miss latency
system.cpu.dcache.WriteReq_mshr_hits::.cpu.data        16525                       # number of WriteReq MSHR hits
system.cpu.dcache.WriteReq_mshr_hits::total        16525                       # number of WriteReq MSHR hits
system.cpu.dcache.WriteReq_mshr_misses::.cpu.data        38819                       # number of WriteReq MSHR misses
system.cpu.dcache.WriteReq_mshr_misses::total        38819                       # number of WriteReq MSHR misses
system.cpu.dcache.WriteReq_mshr_miss_latency::.cpu.data   3056420500                       # number of WriteReq MSHR miss cycles
system.cpu.dcache.WriteReq_mshr_miss_latency::total   3056420500                       # number of WriteReq MSHR miss cycles
system.cpu.dcache.WriteReq_mshr_miss_rate::.cpu.data     0.002723                       # mshr miss rate for WriteReq accesses
system.cpu.dcache.WriteReq_mshr_miss_rate::total     0.002723                       # mshr miss rate for WriteReq accesses
system.cpu.dcache.WriteReq_avg_mshr_miss_latency::.cpu.data 78735.168345                       # average WriteReq mshr miss latency
system.cpu.dcache.WriteReq_avg_mshr_miss_latency::total 78735.168345                       # average WriteReq mshr miss latency
system.cpu.dcache.SoftPFReq_hits::.cpu.data         3319                       # number of SoftPFReq hits
system.cpu.dcache.SoftPFReq_hits::total          3319                       # number of SoftPFReq hits
system.cpu.dcache.SoftPFReq_misses::.cpu.data           42                       # number of SoftPFReq misses
system.cpu.dcache.SoftPFReq_misses::total           42                       # number of SoftPFReq misses
system.cpu.dcache.SoftPFReq_accesses::.cpu.data         3361                       # number of SoftPFReq accesses(hits+misses)
system.cpu.dcache.SoftPFReq_accesses::total         3361                       # number of SoftPFReq accesses(hits+misses)
system.cpu.dcache.SoftPFReq_miss_rate::.cpu.data     0.012496                       # miss rate for SoftPFReq accesses
system.cpu.dcache.SoftPFReq_miss_rate::total     0.012496                       # miss rate for SoftPFReq accesses
system.cpu.dcache.SoftPFReq_mshr_misses::.cpu.data           37                       # number of SoftPFReq MSHR misses
system.cpu.dcache.SoftPFReq_mshr_misses::total           37                       # number of SoftPFReq MSHR misses
system.cpu.dcache.SoftPFReq_mshr_miss_latency::.cpu.data      1306000                       # number of SoftPFReq MSHR miss cycles
system.cpu.dcache.SoftPFReq_mshr_miss_latency::total      1306000                       # number of SoftPFReq MSHR miss cycles
system.cpu.dcache.SoftPFReq_mshr_miss_rate::.cpu.data     0.011009                       # mshr miss rate for SoftPFReq accesses
system.cpu.dcache.SoftPFReq_mshr_miss_rate::total     0.011009                       # mshr miss rate for SoftPFReq accesses
system.cpu.dcache.SoftPFReq_avg_mshr_miss_latency::.cpu.data 35297.297297                       # average SoftPFReq mshr miss latency
system.cpu.dcache.SoftPFReq_avg_mshr_miss_latency::total 35297.297297                       # average SoftPFReq mshr miss latency
system.cpu.dcache.LoadLockedReq_hits::.cpu.data        89080                       # number of LoadLockedReq hits
system.cpu.dcache.LoadLockedReq_hits::total        89080                       # number of LoadLockedReq hits
system.cpu.dcache.LoadLockedReq_accesses::.cpu.data        89080                       # number of LoadLockedReq accesses(hits+misses)
system.cpu.dcache.LoadLockedReq_accesses::total        89080                       # number of LoadLockedReq accesses(hits+misses)
system.cpu.dcache.StoreCondReq_hits::.cpu.data        89080                       # number of StoreCondReq hits
system.cpu.dcache.StoreCondReq_hits::total        89080                       # number of StoreCondReq hits
system.cpu.dcache.StoreCondReq_accesses::.cpu.data        89080                       # number of StoreCondReq accesses(hits+misses)
system.cpu.dcache.StoreCondReq_accesses::total        89080                       # number of StoreCondReq accesses(hits+misses)
system.cpu.dcache.power_state.pwrStateResidencyTicks::UNDEFINED  62554913500                       # Cumulative time (in ticks) in various power states
system.cpu.dcache.tags.tagsinuse          1020.538075                       # Cycle average of tags in use
system.cpu.dcache.tags.total_refs            35848085                       # Total number of references to valid blocks.
system.cpu.dcache.tags.sampled_refs             54035                       # Sample count of references to valid blocks.
system.cpu.dcache.tags.avg_refs            663.423429                       # Average number of references to valid blocks.
system.cpu.dcache.tags.warmup_cycle            176500                       # Cycle when the warmup percentage was hit.
system.cpu.dcache.tags.occ_blocks::.cpu.data  1020.538075                       # Average occupied blocks per requestor
system.cpu.dcache.tags.occ_percent::.cpu.data     0.996619                       # Average percentage of cache occupancy
system.cpu.dcache.tags.occ_percent::total     0.996619                       # Average percentage of cache occupancy
system.cpu.dcache.tags.occ_task_id_blocks::1024         1024                       # Occupied blocks per task id
system.cpu.dcache.tags.age_task_id_blocks_1024::0            4                       # Occupied blocks per task id
system.cpu.dcache.tags.age_task_id_blocks_1024::1           38                       # Occupied blocks per task id
system.cpu.dcache.tags.age_task_id_blocks_1024::2          517                       # Occupied blocks per task id
system.cpu.dcache.tags.age_task_id_blocks_1024::3          424                       # Occupied blocks per task id
system.cpu.dcache.tags.age_task_id_blocks_1024::4           41                       # Occupied blocks per task id
system.cpu.dcache.tags.occ_task_id_percent::1024            1                       # Percentage of cache occupancy per task id
system.cpu.dcache.tags.tag_accesses          71789353                       # Number of tag accesses
system.cpu.dcache.tags.data_accesses         71789353                       # Number of data accesses
system.cpu.dcache.tags.power_state.pwrStateResidencyTicks::UNDEFINED  62554913500                       # Cumulative time (in ticks) in various power states
system.cpu.dtb.instHits                             0                       # ITB inst hits
system.cpu.dtb.instMisses                           0                       # ITB inst misses
system.cpu.dtb.readHits                             0                       # DTB read hits
system.cpu.dtb.readMisses                           0                       # DTB read misses
system.cpu.dtb.writeHits                            0                       # DTB write hits
system.cpu.dtb.writeMisses                          0                       # DTB write misses
system.cpu.dtb.inserts                              0                       # Number of times an entry is inserted into the TLB
system.cpu.dtb.flushTlb                             0                       # Number of times complete TLB was flushed
system.cpu.dtb.flushTlbMva                          0                       # Number of times TLB was flushed by MVA
system.cpu.dtb.flushTlbMvaAsid                      0                       # Number of times TLB was flushed by MVA & ASID
system.cpu.dtb.flushTlbAsid                         0                       # Number of times TLB was flushed by ASID
system.cpu.dtb.flushedEntries                       0                       # Number of entries that have been flushed from TLB
system.cpu.dtb.alignFaults                          0                       # Number of TLB faults due to alignment restrictions
system.cpu.dtb.prefetchFaults                       0                       # Number of TLB faults due to prefetch
system.cpu.dtb.domainFaults                         0                       # Number of TLB faults due to domain restrictions
system.cpu.dtb.permsFaults                          0                       # Number of TLB faults due to permissions restrictions
system.cpu.dtb.readAccesses                         0                       # DTB read accesses
system.cpu.dtb.writeAccesses                        0                       # DTB write accesses
system.cpu.dtb.instAccesses                         0                       # ITB inst accesses
system.cpu.dtb.hits                                 0                       # Total TLB (inst and data) hits
system.cpu.dtb.misses                               0                       # Total TLB (inst and data) misses
system.cpu.dtb.accesses                             0                       # Total TLB (inst and data) accesses
system.cpu.dtb.stage2_mmu.stage2_tlb.instHits            0                       # ITB inst hits
system.cpu.dtb.stage2_mmu.stage2_tlb.instMisses            0                       # ITB inst misses
system.cpu.dtb.stage2_mmu.stage2_tlb.readHits            0                       # DTB read hits
system.cpu.dtb.stage2_mmu.stage2_tlb.readMisses            0                       # DTB read misses
system.cpu.dtb.stage2_mmu.stage2_tlb.writeHits            0                       # DTB write hits
system.cpu.dtb.stage2_mmu.stage2_tlb.writeMisses            0                       # DTB write misses
system.cpu.dtb.stage2_mmu.stage2_tlb.inserts            0                       # Number of times an entry is inserted into the TLB
system.cpu.dtb.stage2_mmu.stage2_tlb.flushTlb            0                       # Number of times complete TLB was flushed
system.cpu.dtb.stage2_mmu.stage2_tlb.flushTlbMva            0                       # Number of times TLB was flushed by MVA
system.cpu.dtb.stage2_mmu.stage2_tlb.flushTlbMvaAsid            0                       # Number of times TLB was flushed by MVA & ASID
system.cpu.dtb.stage2_mmu.stage2_tlb.flushTlbAsid            0                       # Number of times TLB was flushed by ASID
system.cpu.dtb.stage2_mmu.stage2_tlb.flushedEntries            0                       # Number of entries that have been flushed from TLB
system.cpu.dtb.stage2_mmu.stage2_tlb.alignFaults            0                       # Number of TLB faults due to alignment restrictions
system.cpu.dtb.stage2_mmu.stage2_tlb.prefetchFaults            0                       # Number of TLB faults due to prefetch
system.cpu.dtb.stage2_mmu.stage2_tlb.domainFaults            0                       # Number of TLB faults due to domain restrictions
system.cpu.dtb.stage2_mmu.stage2_tlb.permsFaults            0                       # Number of TLB faults due to permissions restrictions
system.cpu.dtb.stage2_mmu.stage2_tlb.readAccesses            0                       # DTB read accesses
system.cpu.dtb.stage2_mmu.stage2_tlb.writeAccesses            0                       # DTB write accesses
system.cpu.dtb.stage2_mmu.stage2_tlb.instAccesses            0                       # ITB inst accesses
system.cpu.dtb.stage2_mmu.stage2_tlb.hits            0                       # Total TLB (inst and data) hits
system.cpu.dtb.stage2_mmu.stage2_tlb.misses            0                       # Total TLB (inst and data) misses
system.cpu.dtb.stage2_mmu.stage2_tlb.accesses            0                       # Total TLB (inst and data) accesses
system.cpu.dtb.stage2_mmu.stage2_tlb.walker.walks            0                       # Table walker walks requested
system.cpu.dtb.stage2_mmu.stage2_tlb.walker.requestOrigin_Requested::Data            0                       # Table walker requests started/completed, data/inst
system.cpu.dtb.stage2_mmu.stage2_tlb.walker.requestOrigin_Requested::Inst            0                       # Table walker requests started/completed, data/inst
system.cpu.dtb.stage2_mmu.stage2_tlb.walker.requestOrigin_Requested::total            0                       # Table walker requests started/completed, data/inst
system.cpu.dtb.stage2_mmu.stage2_tlb.walker.requestOrigin_Completed::Data            0                       # Table walker requests started/completed, data/inst
system.cpu.dtb.stage2_mmu.stage2_tlb.walker.requestOrigin_Completed::Inst            0                       # Table walker requests started/completed, data/inst
system.cpu.dtb.stage2_mmu.stage2_tlb.walker.requestOrigin_Completed::total            0                       # Table walker requests started/completed, data/inst
system.cpu.dtb.stage2_mmu.stage2_tlb.walker.requestOrigin::total            0                       # Table walker requests started/completed, data/inst
system.cpu.dtb.stage2_mmu.stage2_tlb.walker.power_state.pwrStateResidencyTicks::UNDEFINED  62554913500                       # Cumulative time (in ticks) in various power states
system.cpu.dtb.walker.walks                         0                       # Table walker walks requested
system.cpu.dtb.walker.requestOrigin_Requested::Data            0                       # Table walker requests started/completed, data/inst
system.cpu.dtb.walker.requestOrigin_Requested::Inst            0                       # Table walker requests started/completed, data/inst
system.cpu.dtb.walker.requestOrigin_Requested::total            0                       # Table walker requests started/completed, data/inst
system.cpu.dtb.walker.requestOrigin_Completed::Data            0                       # Table walker requests started/completed, data/inst
system.cpu.dtb.walker.requestOrigin_Completed::Inst            0                       # Table walker requests started/completed, data/inst
system.cpu.dtb.walker.requestOrigin_Completed::total            0                       # Table walker requests started/completed, data/inst
system.cpu.dtb.walker.requestOrigin::total            0                       # Table walker requests started/completed, data/inst
system.cpu.dtb.walker.power_state.pwrStateResidencyTicks::UNDEFINED  62554913500                       # Cumulative time (in ticks) in various power states
system.cpu.fetch2.intInstructions            49060501                       # Number of integer instructions successfully decoded
system.cpu.fetch2.fpInstructions                    0                       # Number of floating point instructions successfully decoded
system.cpu.fetch2.vecInstructions                   0                       # Number of SIMD instructions successfully decoded
system.cpu.fetch2.loadInstructions           17106408                       # Number of memory load instructions successfully decoded
system.cpu.fetch2.storeInstructions           9763865                       # Number of memory store instructions successfully decoded
system.cpu.fetch2.amoInstructions                   0                       # Number of memory atomic instructions successfully decoded
system.cpu.icache.demand_hits::.cpu.inst     27581797                       # number of demand (read+write) hits
system.cpu.icache.demand_hits::total         27581797                       # number of demand (read+write) hits
system.cpu.icache.overall_hits::.cpu.inst     27581797                       # number of overall hits
system.cpu.icache.overall_hits::total        27581797                       # number of overall hits
system.cpu.icache.demand_misses::.cpu.inst       535123                       # number of demand (read+write) misses
system.cpu.icache.demand_misses::total         535123                       # number of demand (read+write) misses
system.cpu.icache.overall_misses::.cpu.inst       535123                       # number of overall misses
system.cpu.icache.overall_misses::total        535123                       # number of overall misses
system.cpu.icache.demand_miss_latency::.cpu.inst   6991245500                       # number of demand (read+write) miss cycles
system.cpu.icache.demand_miss_latency::total   6991245500                       # number of demand (read+write) miss cycles
system.cpu.icache.overall_miss_latency::.cpu.inst   6991245500                       # number of overall miss cycles
system.cpu.icache.overall_miss_latency::total   6991245500                       # number of overall miss cycles
system.cpu.icache.demand_accesses::.cpu.inst     28116920                       # number of demand (read+write) accesses
system.cpu.icache.demand_accesses::total     28116920                       # number of demand (read+write) accesses
system.cpu.icache.overall_accesses::.cpu.inst     28116920                       # number of overall (read+write) accesses
system.cpu.icache.overall_accesses::total     28116920                       # number of overall (read+write) accesses
system.cpu.icache.demand_miss_rate::.cpu.inst     0.019032                       # miss rate for demand accesses
system.cpu.icache.demand_miss_rate::total     0.019032                       # miss rate for demand accesses
system.cpu.icache.overall_miss_rate::.cpu.inst     0.019032                       # miss rate for overall accesses
system.cpu.icache.overall_miss_rate::total     0.019032                       # miss rate for overall accesses
system.cpu.icache.demand_avg_miss_latency::.cpu.inst 13064.744928                       # average overall miss latency
system.cpu.icache.demand_avg_miss_latency::total 13064.744928                       # average overall miss latency
system.cpu.icache.overall_avg_miss_latency::.cpu.inst 13064.744928                       # average overall miss latency
system.cpu.icache.overall_avg_miss_latency::total 13064.744928                       # average overall miss latency
system.cpu.icache.blocked_cycles::no_mshrs            0                       # number of cycles access was blocked
system.cpu.icache.blocked_cycles::no_targets            0                       # number of cycles access was blocked
system.cpu.icache.blocked::no_mshrs                 0                       # number of cycles access was blocked
system.cpu.icache.blocked::no_targets               0                       # number of cycles access was blocked
system.cpu.icache.avg_blocked_cycles::no_mshrs          nan                       # average number of cycles each access was blocked
system.cpu.icache.avg_blocked_cycles::no_targets          nan                       # average number of cycles each access was blocked
system.cpu.icache.writebacks::.writebacks       534721                       # number of writebacks
system.cpu.icache.writebacks::total            534721                       # number of writebacks
system.cpu.icache.demand_mshr_misses::.cpu.inst       535123                       # number of demand (read+write) MSHR misses
system.cpu.icache.demand_mshr_misses::total       535123                       # number of demand (read+write) MSHR misses
system.cpu.icache.overall_mshr_misses::.cpu.inst       535123                       # number of overall MSHR misses
system.cpu.icache.overall_mshr_misses::total       535123                       # number of overall MSHR misses
system.cpu.icache.demand_mshr_miss_latency::.cpu.inst   6456122500                       # number of demand (read+write) MSHR miss cycles
system.cpu.icache.demand_mshr_miss_latency::total   6456122500                       # number of demand (read+write) MSHR miss cycles
system.cpu.icache.overall_mshr_miss_latency::.cpu.inst   6456122500                       # number of overall MSHR miss cycles
system.cpu.icache.overall_mshr_miss_latency::total   6456122500                       # number of overall MSHR miss cycles
system.cpu.icache.demand_mshr_miss_rate::.cpu.inst     0.019032                       # mshr miss rate for demand accesses
system.cpu.icache.demand_mshr_miss_rate::total     0.019032                       # mshr miss rate for demand accesses
system.cpu.icache.overall_mshr_miss_rate::.cpu.inst     0.019032                       # mshr miss rate for overall accesses
system.cpu.icache.overall_mshr_miss_rate::total     0.019032                       # mshr miss rate for overall accesses
system.cpu.icache.demand_avg_mshr_miss_latency::.cpu.inst 12064.744928                       # average overall mshr miss latency
system.cpu.icache.demand_avg_mshr_miss_latency::total 12064.744928                       # average overall mshr miss latency
system.cpu.icache.overall_avg_mshr_miss_latency::.cpu.inst 12064.744928                       # average overall mshr miss latency
system.cpu.icache.overall_avg_mshr_miss_latency::total 12064.744928                       # average overall mshr miss latency
system.cpu.icache.replacements                 534721                       # number of replacements
system.cpu.icache.ReadReq_hits::.cpu.inst     27581797                       # number of ReadReq hits
system.cpu.icache.ReadReq_hits::total        27581797                       # number of ReadReq hits
system.cpu.icache.ReadReq_misses::.cpu.inst       535123                       # number of ReadReq misses
system.cpu.icache.ReadReq_misses::total        535123                       # number of ReadReq misses
system.cpu.icache.ReadReq_miss_latency::.cpu.inst   6991245500                       # number of ReadReq miss cycles
system.cpu.icache.ReadReq_miss_latency::total   6991245500                       # number of ReadReq miss cycles
system.cpu.icache.ReadReq_accesses::.cpu.inst     28116920                       # number of ReadReq accesses(hits+misses)
system.cpu.icache.ReadReq_accesses::total     28116920                       # number of ReadReq accesses(hits+misses)
system.cpu.icache.ReadReq_miss_rate::.cpu.inst     0.019032                       # miss rate for ReadReq accesses
system.cpu.icache.ReadReq_miss_rate::total     0.019032                       # miss rate for ReadReq accesses
system.cpu.icache.ReadReq_avg_miss_latency::.cpu.inst 13064.744928                       # average ReadReq miss latency
system.cpu.icache.ReadReq_avg_miss_latency::total 13064.744928                       # average ReadReq miss latency
system.cpu.icache.ReadReq_mshr_misses::.cpu.inst       535123                       # number of ReadReq MSHR misses
system.cpu.icache.ReadReq_mshr_misses::total       535123                       # number of ReadReq MSHR misses
system.cpu.icache.ReadReq_mshr_miss_latency::.cpu.inst   6456122500                       # number of ReadReq MSHR miss cycles
system.cpu.icache.ReadReq_mshr_miss_latency::total   6456122500                       # number of ReadReq MSHR miss cycles
system.cpu.icache.ReadReq_mshr_miss_rate::.cpu.inst     0.019032                       # mshr miss rate for ReadReq accesses
system.cpu.icache.ReadReq_mshr_miss_rate::total     0.019032                       # mshr miss rate for ReadReq accesses
system.cpu.icache.ReadReq_avg_mshr_miss_latency::.cpu.inst 12064.744928                       # average ReadReq mshr miss latency
system.cpu.icache.ReadReq_avg_mshr_miss_latency::total 12064.744928                       # average ReadReq mshr miss latency
system.cpu.icache.power_state.pwrStateResidencyTicks::UNDEFINED  62554913500                       # Cumulative time (in ticks) in various power states
system.cpu.icache.tags.tagsinuse           401.786072                       # Cycle average of tags in use
system.cpu.icache.tags.total_refs            28116920                       # Total number of references to valid blocks.
system.cpu.icache.tags.sampled_refs            535123                       # Sample count of references to valid blocks.
system.cpu.icache.tags.avg_refs             52.542911                       # Average number of references to valid blocks.
system.cpu.icache.tags.warmup_cycle             87500                       # Cycle when the warmup percentage was hit.
system.cpu.icache.tags.occ_blocks::.cpu.inst   401.786072                       # Average occupied blocks per requestor
system.cpu.icache.tags.occ_percent::.cpu.inst     0.784738                       # Average percentage of cache occupancy
system.cpu.icache.tags.occ_percent::total     0.784738                       # Average percentage of cache occupancy
system.cpu.icache.tags.occ_task_id_blocks::1024          402                       # Occupied blocks per task id
system.cpu.icache.tags.age_task_id_blocks_1024::0            8                       # Occupied blocks per task id
system.cpu.icache.tags.age_task_id_blocks_1024::2            3                       # Occupied blocks per task id
system.cpu.icache.tags.age_task_id_blocks_1024::4          391                       # Occupied blocks per task id
system.cpu.icache.tags.occ_task_id_percent::1024     0.785156                       # Percentage of cache occupancy per task id
system.cpu.icache.tags.tag_accesses          56768963                       # Number of tag accesses
system.cpu.icache.tags.data_accesses         56768963                       # Number of data accesses
system.cpu.icache.tags.power_state.pwrStateResidencyTicks::UNDEFINED  62554913500                       # Cumulative time (in ticks) in various power states
system.cpu.itb.instHits                             0                       # ITB inst hits
system.cpu.itb.instMisses                           0                       # ITB inst misses
system.cpu.itb.readHits                             0                       # DTB read hits
system.cpu.itb.readMisses                           0                       # DTB read misses
system.cpu.itb.writeHits                            0                       # DTB write hits
system.cpu.itb.writeMisses                          0                       # DTB write misses
system.cpu.itb.inserts                              0                       # Number of times an entry is inserted into the TLB
system.cpu.itb.flushTlb                             0                       # Number of times complete TLB was flushed
system.cpu.itb.flushTlbMva                          0                       # Number of times TLB was flushed by MVA
system.cpu.itb.flushTlbMvaAsid                      0                       # Number of times TLB was flushed by MVA & ASID
system.cpu.itb.flushTlbAsid                         0                       # Number of times TLB was flushed by ASID
system.cpu.itb.flushedEntries                       0                       # Number of entries that have been flushed from TLB
system.cpu.itb.alignFaults                          0                       # Number of TLB faults due to alignment restrictions
system.cpu.itb.prefetchFaults                       0                       # Number of TLB faults due to prefetch
system.cpu.itb.domainFaults                         0                       # Number of TLB faults due to domain restrictions
system.cpu.itb.permsFaults                          0                       # Number of TLB faults due to permissions restrictions
system.cpu.itb.readAccesses                         0                       # DTB read accesses
system.cpu.itb.writeAccesses                        0                       # DTB write accesses
system.cpu.itb.instAccesses                         0                       # ITB inst accesses
system.cpu.itb.hits                                 0                       # Total TLB (inst and data) hits
system.cpu.itb.misses                               0                       # Total TLB (inst and data) misses
system.cpu.itb.accesses                             0                       # Total TLB (inst and data) accesses
system.cpu.itb.stage2_mmu.stage2_tlb.instHits            0                       # ITB inst hits
system.cpu.itb.stage2_mmu.stage2_tlb.instMisses            0                       # ITB inst misses
system.cpu.itb.stage2_mmu.stage2_tlb.readHits            0                       # DTB read hits
system.cpu.itb.stage2_mmu.stage2_tlb.readMisses            0                       # DTB read misses
system.cpu.itb.stage2_mmu.stage2_tlb.writeHits            0                       # DTB write hits
system.cpu.itb.stage2_mmu.stage2_tlb.writeMisses            0                       # DTB write misses
system.cpu.itb.stage2_mmu.stage2_tlb.inserts            0                       # Number of times an entry is inserted into the TLB
system.cpu.itb.stage2_mmu.stage2_tlb.flushTlb            0                       # Number of times complete TLB was flushed
system.cpu.itb.stage2_mmu.stage2_tlb.flushTlbMva            0                       # Number of times TLB was flushed by MVA
system.cpu.itb.stage2_mmu.stage2_tlb.flushTlbMvaAsid            0                       # Number of times TLB was flushed by MVA & ASID
system.cpu.itb.stage2_mmu.stage2_tlb.flushTlbAsid            0                       # Number of times TLB was flushed by ASID
system.cpu.itb.stage2_mmu.stage2_tlb.flushedEntries            0                       # Number of entries that have been flushed from TLB
system.cpu.itb.stage2_mmu.stage2_tlb.alignFaults            0                       # Number of TLB faults due to alignment restrictions
system.cpu.itb.stage2_mmu.stage2_tlb.prefetchFaults            0                       # Number of TLB faults due to prefetch
system.cpu.itb.stage2_mmu.stage2_tlb.domainFaults            0                       # Number of TLB faults due to domain restrictions
system.cpu.itb.stage2_mmu.stage2_tlb.permsFaults            0                       # Number of TLB faults due to permissions restrictions
system.cpu.itb.stage2_mmu.stage2_tlb.readAccesses            0                       # DTB read accesses
system.cpu.itb.stage2_mmu.stage2_tlb.writeAccesses            0                       # DTB write accesses
system.cpu.itb.stage2_mmu.stage2_tlb.instAccesses            0                       # ITB inst accesses
system.cpu.itb.stage2_mmu.stage2_tlb.hits            0                       # Total TLB (inst and data) hits
system.cpu.itb.stage2_mmu.stage2_tlb.misses            0                       # Total TLB (inst and data) misses
system.cpu.itb.stage2_mmu.stage2_tlb.accesses            0                       # Total TLB (inst and data) accesses
system.cpu.itb.stage2_mmu.stage2_tlb.walker.walks            0                       # Table walker walks requested
system.cpu.itb.stage2_mmu.stage2_tlb.walker.requestOrigin_Requested::Data            0                       # Table walker requests started/completed, data/inst
system.cpu.itb.stage2_mmu.stage2_tlb.walker.requestOrigin_Requested::Inst            0                       # Table walker requests started/completed, data/inst
system.cpu.itb.stage2_mmu.stage2_tlb.walker.requestOrigin_Requested::total            0                       # Table walker requests started/completed, data/inst
system.cpu.itb.stage2_mmu.stage2_tlb.walker.requestOrigin_Completed::Data            0                       # Table walker requests started/completed, data/inst
system.cpu.itb.stage2_mmu.stage2_tlb.walker.requestOrigin_Completed::Inst            0                       # Table walker requests started/completed, data/inst
system.cpu.itb.stage2_mmu.stage2_tlb.walker.requestOrigin_Completed::total            0                       # Table walker requests started/completed, data/inst
system.cpu.itb.stage2_mmu.stage2_tlb.walker.requestOrigin::total            0                       # Table walker requests started/completed, data/inst
system.cpu.itb.stage2_mmu.stage2_tlb.walker.power_state.pwrStateResidencyTicks::UNDEFINED  62554913500                       # Cumulative time (in ticks) in various power states
system.cpu.itb.walker.walks                         0                       # Table walker walks requested
system.cpu.itb.walker.requestOrigin_Requested::Data            0                       # Table walker requests started/completed, data/inst
system.cpu.itb.walker.requestOrigin_Requested::Inst            0                       # Table walker requests started/completed, data/inst
system.cpu.itb.walker.requestOrigin_Requested::total            0                       # Table walker requests started/completed, data/inst
system.cpu.itb.walker.requestOrigin_Completed::Data            0                       # Table walker requests started/completed, data/inst
system.cpu.itb.walker.requestOrigin_Completed::Inst            0                       # Table walker requests started/completed, data/inst
system.cpu.itb.walker.requestOrigin_Completed::total            0                       # Table walker requests started/completed, data/inst
system.cpu.itb.walker.requestOrigin::total            0                       # Table walker requests started/completed, data/inst
system.cpu.itb.walker.power_state.pwrStateResidencyTicks::UNDEFINED  62554913500                       # Cumulative time (in ticks) in various power states
system.cpu.power_state.pwrStateResidencyTicks::ON  62554913500                       # Cumulative time (in ticks) in various power states
system.cpu.thread0.numInsts                 100000001                       # Number of Instructions committed
system.cpu.thread0.numOps                   109431277                       # Number of Ops committed
system.cpu.thread0.numMemRefs                       0                       # Number of Memory References
system.cpu_clk_domain.clock                       500                       # Clock period in ticks
system.cpu_voltage_domain.voltage                   1                       # Voltage in Volts
system.l2.demand_hits::.cpu.inst               534599                       # number of demand (read+write) hits
system.l2.demand_hits::.cpu.data                14641                       # number of demand (read+write) hits
system.l2.demand_hits::total                   549240                       # number of demand (read+write) hits
system.l2.overall_hits::.cpu.inst              534599                       # number of overall hits
system.l2.overall_hits::.cpu.data               14641                       # number of overall hits
system.l2.overall_hits::total                  549240                       # number of overall hits
system.l2.demand_misses::.cpu.inst                524                       # number of demand (read+write) misses
system.l2.demand_misses::.cpu.data              39394                       # number of demand (read+write) misses
system.l2.demand_misses::total                  39918                       # number of demand (read+write) misses
system.l2.overall_misses::.cpu.inst               524                       # number of overall misses
system.l2.overall_misses::.cpu.data             39394                       # number of overall misses
system.l2.overall_misses::total                 39918                       # number of overall misses
system.l2.demand_miss_latency::.cpu.inst     40139000                       # number of demand (read+write) miss cycles
system.l2.demand_miss_latency::.cpu.data   3048967500                       # number of demand (read+write) miss cycles
system.l2.demand_miss_latency::total       3089106500                       # number of demand (read+write) miss cycles
system.l2.overall_miss_latency::.cpu.inst     40139000                       # number of overall miss cycles
system.l2.overall_miss_latency::.cpu.data   3048967500                       # number of overall miss cycles
system.l2.overall_miss_latency::total      3089106500                       # number of overall miss cycles
system.l2.demand_accesses::.cpu.inst           535123                       # number of demand (read+write) accesses
system.l2.demand_accesses::.cpu.data            54035                       # number of demand (read+write) accesses
system.l2.demand_accesses::total               589158                       # number of demand (read+write) accesses
system.l2.overall_accesses::.cpu.inst          535123                       # number of overall (read+write) accesses
system.l2.overall_accesses::.cpu.data           54035                       # number of overall (read+write) accesses
system.l2.overall_accesses::total              589158                       # number of overall (read+write) accesses
system.l2.demand_miss_rate::.cpu.inst        0.000979                       # miss rate for demand accesses
system.l2.demand_miss_rate::.cpu.data        0.729046                       # miss rate for demand accesses
system.l2.demand_miss_rate::total            0.067754                       # miss rate for demand accesses
system.l2.overall_miss_rate::.cpu.inst       0.000979                       # miss rate for overall accesses
system.l2.overall_miss_rate::.cpu.data       0.729046                       # miss rate for overall accesses
system.l2.overall_miss_rate::total           0.067754                       # miss rate for overall accesses
system.l2.demand_avg_miss_latency::.cpu.inst 76601.145038                       # average overall miss latency
system.l2.demand_avg_miss_latency::.cpu.data 77396.748236                       # average overall miss latency
system.l2.demand_avg_miss_latency::total 77386.304424                       # average overall miss latency
system.l2.overall_avg_miss_latency::.cpu.inst 76601.145038                       # average overall miss latency
system.l2.overall_avg_miss_latency::.cpu.data 77396.748236                       # average overall miss latency
system.l2.overall_avg_miss_latency::total 77386.304424                       # average overall miss latency
system.l2.blocked_cycles::no_mshrs                  0                       # number of cycles access was blocked
system.l2.blocked_cycles::no_targets                0                       # number of cycles access was blocked
system.l2.blocked::no_mshrs                         0                       # number of cycles access was blocked
system.l2.blocked::no_targets                       0                       # number of cycles access was blocked
system.l2.avg_blocked_cycles::no_mshrs            nan                       # average number of cycles each access was blocked
system.l2.avg_blocked_cycles::no_targets          nan                       # average number of cycles each access was blocked
system.l2.writebacks::.writebacks                6562                       # number of writebacks
system.l2.writebacks::total                      6562                       # number of writebacks
system.l2.demand_mshr_hits::.cpu.inst               1                       # number of demand (read+write) MSHR hits
system.l2.demand_mshr_hits::.cpu.data               5                       # number of demand (read+write) MSHR hits
system.l2.demand_mshr_hits::total                   6                       # number of demand (read+write) MSHR hits
system.l2.overall_mshr_hits::.cpu.inst              1                       # number of overall MSHR hits
system.l2.overall_mshr_hits::.cpu.data              5                       # number of overall MSHR hits
system.l2.overall_mshr_hits::total                  6                       # number of overall MSHR hits
system.l2.demand_mshr_misses::.cpu.inst           523                       # number of demand (read+write) MSHR misses
system.l2.demand_mshr_misses::.cpu.data         39389                       # number of demand (read+write) MSHR misses
system.l2.demand_mshr_misses::total             39912                       # number of demand (read+write) MSHR misses
system.l2.overall_mshr_misses::.cpu.inst          523                       # number of overall MSHR misses
system.l2.overall_mshr_misses::.cpu.data        39389                       # number of overall MSHR misses
system.l2.overall_mshr_misses::total            39912                       # number of overall MSHR misses
system.l2.demand_mshr_miss_latency::.cpu.inst     34844500                       # number of demand (read+write) MSHR miss cycles
system.l2.demand_mshr_miss_latency::.cpu.data   2654752000                       # number of demand (read+write) MSHR miss cycles
system.l2.demand_mshr_miss_latency::total   2689596500                       # number of demand (read+write) MSHR miss cycles
system.l2.overall_mshr_miss_latency::.cpu.inst     34844500                       # number of overall MSHR miss cycles
system.l2.overall_mshr_miss_latency::.cpu.data   2654752000                       # number of overall MSHR miss cycles
system.l2.overall_mshr_miss_latency::total   2689596500                       # number of overall MSHR miss cycles
system.l2.demand_mshr_miss_rate::.cpu.inst     0.000977                       # mshr miss rate for demand accesses
system.l2.demand_mshr_miss_rate::.cpu.data     0.728953                       # mshr miss rate for demand accesses
system.l2.demand_mshr_miss_rate::total       0.067744                       # mshr miss rate for demand accesses
system.l2.overall_mshr_miss_rate::.cpu.inst     0.000977                       # mshr miss rate for overall accesses
system.l2.overall_mshr_miss_rate::.cpu.data     0.728953                       # mshr miss rate for overall accesses
system.l2.overall_mshr_miss_rate::total      0.067744                       # mshr miss rate for overall accesses
system.l2.demand_avg_mshr_miss_latency::.cpu.inst 66624.282983                       # average overall mshr miss latency
system.l2.demand_avg_mshr_miss_latency::.cpu.data 67398.309173                       # average overall mshr miss latency
system.l2.demand_avg_mshr_miss_latency::total 67388.166466                       # average overall mshr miss latency
system.l2.overall_avg_mshr_miss_latency::.cpu.inst 66624.282983                       # average overall mshr miss latency
system.l2.overall_avg_mshr_miss_latency::.cpu.data 67398.309173                       # average overall mshr miss latency
system.l2.overall_avg_mshr_miss_latency::total 67388.166466                       # average overall mshr miss latency
system.l2.replacements                           7158                       # number of replacements
system.l2.WritebackDirty_hits::.writebacks        49913                       # number of WritebackDirty hits
system.l2.WritebackDirty_hits::total            49913                       # number of WritebackDirty hits
system.l2.WritebackDirty_accesses::.writebacks        49913                       # number of WritebackDirty accesses(hits+misses)
system.l2.WritebackDirty_accesses::total        49913                       # number of WritebackDirty accesses(hits+misses)
system.l2.WritebackClean_hits::.writebacks       534714                       # number of WritebackClean hits
system.l2.WritebackClean_hits::total           534714                       # number of WritebackClean hits
system.l2.WritebackClean_accesses::.writebacks       534714                       # number of WritebackClean accesses(hits+misses)
system.l2.WritebackClean_accesses::total       534714                       # number of WritebackClean accesses(hits+misses)
system.l2.CleanEvict_mshr_misses::.writebacks            1                       # number of CleanEvict MSHR misses
system.l2.CleanEvict_mshr_misses::total             1                       # number of CleanEvict MSHR misses
system.l2.CleanEvict_mshr_miss_rate::.writebacks          inf                       # mshr miss rate for CleanEvict accesses
system.l2.CleanEvict_mshr_miss_rate::total          inf                       # mshr miss rate for CleanEvict accesses
system.l2.ReadExReq_hits::.cpu.data                 9                       # number of ReadExReq hits
system.l2.ReadExReq_hits::total                     9                       # number of ReadExReq hits
system.l2.ReadExReq_misses::.cpu.data           38810                       # number of ReadExReq misses
system.l2.ReadExReq_misses::total               38810                       # number of ReadExReq misses
system.l2.ReadExReq_miss_latency::.cpu.data   2998096500                       # number of ReadExReq miss cycles
system.l2.ReadExReq_miss_latency::total    2998096500                       # number of ReadExReq miss cycles
system.l2.ReadExReq_accesses::.cpu.data         38819                       # number of ReadExReq accesses(hits+misses)
system.l2.ReadExReq_accesses::total             38819                       # number of ReadExReq accesses(hits+misses)
system.l2.ReadExReq_miss_rate::.cpu.data     0.999768                       # miss rate for ReadExReq accesses
system.l2.ReadExReq_miss_rate::total         0.999768                       # miss rate for ReadExReq accesses
system.l2.ReadExReq_avg_miss_latency::.cpu.data 77250.618397                       # average ReadExReq miss latency
system.l2.ReadExReq_avg_miss_latency::total 77250.618397                       # average ReadExReq miss latency
system.l2.ReadExReq_mshr_misses::.cpu.data        38810                       # number of ReadExReq MSHR misses
system.l2.ReadExReq_mshr_misses::total          38810                       # number of ReadExReq MSHR misses
system.l2.ReadExReq_mshr_miss_latency::.cpu.data   2609996500                       # number of ReadExReq MSHR miss cycles
system.l2.ReadExReq_mshr_miss_latency::total   2609996500                       # number of ReadExReq MSHR miss cycles
system.l2.ReadExReq_mshr_miss_rate::.cpu.data     0.999768                       # mshr miss rate for ReadExReq accesses
system.l2.ReadExReq_mshr_miss_rate::total     0.999768                       # mshr miss rate for ReadExReq accesses
system.l2.ReadExReq_avg_mshr_miss_latency::.cpu.data 67250.618397                       # average ReadExReq mshr miss latency
system.l2.ReadExReq_avg_mshr_miss_latency::total 67250.618397                       # average ReadExReq mshr miss latency
system.l2.ReadCleanReq_hits::.cpu.inst         534599                       # number of ReadCleanReq hits
system.l2.ReadCleanReq_hits::total             534599                       # number of ReadCleanReq hits
system.l2.ReadCleanReq_misses::.cpu.inst          524                       # number of ReadCleanReq misses
system.l2.ReadCleanReq_misses::total              524                       # number of ReadCleanReq misses
system.l2.ReadCleanReq_miss_latency::.cpu.inst     40139000                       # number of ReadCleanReq miss cycles
system.l2.ReadCleanReq_miss_latency::total     40139000                       # number of ReadCleanReq miss cycles
system.l2.ReadCleanReq_accesses::.cpu.inst       535123                       # number of ReadCleanReq accesses(hits+misses)
system.l2.ReadCleanReq_accesses::total         535123                       # number of ReadCleanReq accesses(hits+misses)
system.l2.ReadCleanReq_miss_rate::.cpu.inst     0.000979                       # miss rate for ReadCleanReq accesses
system.l2.ReadCleanReq_miss_rate::total      0.000979                       # miss rate for ReadCleanReq accesses
system.l2.ReadCleanReq_avg_miss_latency::.cpu.inst 76601.145038                       # average ReadCleanReq miss latency
system.l2.ReadCleanReq_avg_miss_latency::total 76601.145038                       # average ReadCleanReq miss latency
system.l2.ReadCleanReq_mshr_hits::.cpu.inst            1                       # number of ReadCleanReq MSHR hits
system.l2.ReadCleanReq_mshr_hits::total             1                       # number of ReadCleanReq MSHR hits
system.l2.ReadCleanReq_mshr_misses::.cpu.inst          523                       # number of ReadCleanReq MSHR misses
system.l2.ReadCleanReq_mshr_misses::total          523                       # number of ReadCleanReq MSHR misses
system.l2.ReadCleanReq_mshr_miss_latency::.cpu.inst     34844500                       # number of ReadCleanReq MSHR miss cycles
system.l2.ReadCleanReq_mshr_miss_latency::total     34844500                       # number of ReadCleanReq MSHR miss cycles
system.l2.ReadCleanReq_mshr_miss_rate::.cpu.inst     0.000977                       # mshr miss rate for ReadCleanReq accesses
system.l2.ReadCleanReq_mshr_miss_rate::total     0.000977                       # mshr miss rate for ReadCleanReq accesses
system.l2.ReadCleanReq_avg_mshr_miss_latency::.cpu.inst 66624.282983                       # average ReadCleanReq mshr miss latency
system.l2.ReadCleanReq_avg_mshr_miss_latency::total 66624.282983                       # average ReadCleanReq mshr miss latency
system.l2.ReadSharedReq_hits::.cpu.data         14632                       # number of ReadSharedReq hits
system.l2.ReadSharedReq_hits::total             14632                       # number of ReadSharedReq hits
system.l2.ReadSharedReq_misses::.cpu.data          584                       # number of ReadSharedReq misses
system.l2.ReadSharedReq_misses::total             584                       # number of ReadSharedReq misses
system.l2.ReadSharedReq_miss_latency::.cpu.data     50871000                       # number of ReadSharedReq miss cycles
system.l2.ReadSharedReq_miss_latency::total     50871000                       # number of ReadSharedReq miss cycles
system.l2.ReadSharedReq_accesses::.cpu.data        15216                       # number of ReadSharedReq accesses(hits+misses)
system.l2.ReadSharedReq_accesses::total         15216                       # number of ReadSharedReq accesses(hits+misses)
system.l2.ReadSharedReq_miss_rate::.cpu.data     0.038381                       # miss rate for ReadSharedReq accesses
system.l2.ReadSharedReq_miss_rate::total     0.038381                       # miss rate for ReadSharedReq accesses
system.l2.ReadSharedReq_avg_miss_latency::.cpu.data 87107.876712                       # average ReadSharedReq miss latency
system.l2.ReadSharedReq_avg_miss_latency::total 87107.876712                       # average ReadSharedReq miss latency
system.l2.ReadSharedReq_mshr_hits::.cpu.data            5                       # number of ReadSharedReq MSHR hits
system.l2.ReadSharedReq_mshr_hits::total            5                       # number of ReadSharedReq MSHR hits
system.l2.ReadSharedReq_mshr_misses::.cpu.data          579                       # number of ReadSharedReq MSHR misses
system.l2.ReadSharedReq_mshr_misses::total          579                       # number of ReadSharedReq MSHR misses
system.l2.ReadSharedReq_mshr_miss_latency::.cpu.data     44755500                       # number of ReadSharedReq MSHR miss cycles
system.l2.ReadSharedReq_mshr_miss_latency::total     44755500                       # number of ReadSharedReq MSHR miss cycles
system.l2.ReadSharedReq_mshr_miss_rate::.cpu.data     0.038052                       # mshr miss rate for ReadSharedReq accesses
system.l2.ReadSharedReq_mshr_miss_rate::total     0.038052                       # mshr miss rate for ReadSharedReq accesses
system.l2.ReadSharedReq_avg_mshr_miss_latency::.cpu.data 77297.927461                       # average ReadSharedReq mshr miss latency
system.l2.ReadSharedReq_avg_mshr_miss_latency::total 77297.927461                       # average ReadSharedReq mshr miss latency
system.l2.power_state.pwrStateResidencyTicks::UNDEFINED  62554913500                       # Cumulative time (in ticks) in various power states
system.l2.tags.tagsinuse                 26197.081270                       # Cycle average of tags in use
system.l2.tags.total_refs                     1176856                       # Total number of references to valid blocks.
system.l2.tags.sampled_refs                     39926                       # Sample count of references to valid blocks.
system.l2.tags.avg_refs                     29.475930                       # Average number of references to valid blocks.
system.l2.tags.warmup_cycle                     77000                       # Cycle when the warmup percentage was hit.
system.l2.tags.occ_blocks::.writebacks       2.123913                       # Average occupied blocks per requestor
system.l2.tags.occ_blocks::.cpu.inst       271.321744                       # Average occupied blocks per requestor
system.l2.tags.occ_blocks::.cpu.data     25923.635613                       # Average occupied blocks per requestor
system.l2.tags.occ_percent::.writebacks      0.000065                       # Average percentage of cache occupancy
system.l2.tags.occ_percent::.cpu.inst        0.008280                       # Average percentage of cache occupancy
system.l2.tags.occ_percent::.cpu.data        0.791127                       # Average percentage of cache occupancy
system.l2.tags.occ_percent::total            0.799471                       # Average percentage of cache occupancy
system.l2.tags.occ_task_id_blocks::1024         32768                       # Occupied blocks per task id
system.l2.tags.age_task_id_blocks_1024::0            3                       # Occupied blocks per task id
system.l2.tags.age_task_id_blocks_1024::1           31                       # Occupied blocks per task id
system.l2.tags.age_task_id_blocks_1024::2          379                       # Occupied blocks per task id
system.l2.tags.age_task_id_blocks_1024::3         3433                       # Occupied blocks per task id
system.l2.tags.age_task_id_blocks_1024::4        28922                       # Occupied blocks per task id
system.l2.tags.occ_task_id_percent::1024            1                       # Percentage of cache occupancy per task id
system.l2.tags.tag_accesses                   2393652                       # Number of tag accesses
system.l2.tags.data_accesses                  2393652                       # Number of data accesses
system.l2.tags.power_state.pwrStateResidencyTicks::UNDEFINED  62554913500                       # Cumulative time (in ticks) in various power states
system.mem_ctrls.avgPriority_.writebacks::samples      6562.00                       # Average QoS priority value for accepted requests
system.mem_ctrls.avgPriority_.cpu.inst::samples       523.00                       # Average QoS priority value for accepted requests
system.mem_ctrls.avgPriority_.cpu.data::samples     39387.00                       # Average QoS priority value for accepted requests
system.mem_ctrls.priorityMinLatency      0.000000018750                       # per QoS priority minimum request to response latency (s)
system.mem_ctrls.priorityMaxLatency      0.028441544500                       # per QoS priority maximum request to response latency (s)
system.mem_ctrls.numReadWriteTurnArounds          363                       # Number of turnarounds from READ to WRITE
system.mem_ctrls.numWriteReadTurnArounds          363                       # Number of turnarounds from WRITE to READ
system.mem_ctrls.numStayReadState              102406                       # Number of times bus staying in READ state
system.mem_ctrls.numStayWriteState               6200                       # Number of times bus staying in WRITE state
system.mem_ctrls.readReqs                       39912                       # Number of read requests accepted
system.mem_ctrls.writeReqs                       6562                       # Number of write requests accepted
system.mem_ctrls.readBursts                     39912                       # Number of controller read bursts, including those serviced by the write queue
system.mem_ctrls.writeBursts                     6562                       # Number of controller write bursts, including those merged in the write queue
system.mem_ctrls.servicedByWrQ                      2                       # Number of controller read bursts serviced by the write queue
system.mem_ctrls.mergedWrBursts                     0                       # Number of controller write bursts merged with an existing one
system.mem_ctrls.neitherReadNorWriteReqs            0                       # Number of requests that are neither read nor write
system.mem_ctrls.avgRdQLen                       1.00                       # Average read queue length when enqueuing
system.mem_ctrls.avgWrQLen                      12.87                       # Average write queue length when enqueuing
system.mem_ctrls.numRdRetry                         0                       # Number of times read queue was full causing retry
system.mem_ctrls.numWrRetry                         0                       # Number of times write queue was full causing retry
system.mem_ctrls.readPktSize::0                     0                       # Read request sizes (log2)
system.mem_ctrls.readPktSize::1                     0                       # Read request sizes (log2)
system.mem_ctrls.readPktSize::2                     0                       # Read request sizes (log2)
system.mem_ctrls.readPktSize::3                     0                       # Read request sizes (log2)
system.mem_ctrls.readPktSize::4                     0                       # Read request sizes (log2)
system.mem_ctrls.readPktSize::5                     0                       # Read request sizes (log2)
system.mem_ctrls.readPktSize::6                 39912                       # Read request sizes (log2)
system.mem_ctrls.writePktSize::0                    0                       # Write request sizes (log2)
system.mem_ctrls.writePktSize::1                    0                       # Write request sizes (log2)
system.mem_ctrls.writePktSize::2                    0                       # Write request sizes (log2)
system.mem_ctrls.writePktSize::3                    0                       # Write request sizes (log2)
system.mem_ctrls.writePktSize::4                    0                       # Write request sizes (log2)
system.mem_ctrls.writePktSize::5                    0                       # Write request sizes (log2)
system.mem_ctrls.writePktSize::6                 6562                       # Write request sizes (log2)
system.mem_ctrls.rdQLenPdf::0                   39696                       # What read queue length does an incoming req see
system.mem_ctrls.rdQLenPdf::1                     208                       # What read queue length does an incoming req see
[...]
system.mem_ctrls.dram.bw_write::.writebacks      6713589                       # Write bandwidth from this memory (bytes/s)
system.mem_ctrls.dram.bw_write::total         6713589                       # Write bandwidth from this memory (bytes/s)
system.mem_ctrls.dram.bw_total::.writebacks      6713589                       # Total bandwidth to/from this memory (bytes/s)
system.mem_ctrls.dram.bw_total::.cpu.inst       535082                       # Total bandwidth to/from this memory (bytes/s)
system.mem_ctrls.dram.bw_total::.cpu.data     40298929                       # Total bandwidth to/from this memory (bytes/s)
system.mem_ctrls.dram.bw_total::total        47547600                       # Total bandwidth to/from this memory (bytes/s)
system.mem_ctrls.dram.readBursts                39910                       # Number of DRAM read bursts
system.mem_ctrls.dram.writeBursts                6543                       # Number of DRAM write bursts
system.mem_ctrls.dram.perBankRdBursts::0         2523                       # Per bank write bursts
system.mem_ctrls.dram.perBankRdBursts::1         2492                       # Per bank write bursts
system.mem_ctrls.dram.perBankRdBursts::2         2499                       # Per bank write bursts
system.mem_ctrls.dram.perBankRdBursts::3         2596                       # Per bank write bursts
system.mem_ctrls.dram.perBankRdBursts::4         2445                       # Per bank write bursts
system.mem_ctrls.dram.perBankRdBursts::5         2394                       # Per bank write bursts
system.mem_ctrls.dram.perBankRdBursts::6         2441                       # Per bank write bursts
system.mem_ctrls.dram.perBankRdBursts::7         2477                       # Per bank write bursts
system.mem_ctrls.dram.perBankRdBursts::8         2482                       # Per bank write bursts
system.mem_ctrls.dram.perBankRdBursts::9         2514                       # Per bank write bursts
system.mem_ctrls.dram.perBankRdBursts::10         2502                       # Per bank write bursts
system.mem_ctrls.dram.perBankRdBursts::11         2519                       # Per bank write bursts
system.mem_ctrls.dram.perBankRdBursts::12         2504                       # Per bank write bursts
system.mem_ctrls.dram.perBankRdBursts::13         2487                       # Per bank write bursts
system.mem_ctrls.dram.perBankRdBursts::14         2517                       # Per bank write bursts
system.mem_ctrls.dram.perBankRdBursts::15         2518                       # Per bank write bursts
system.mem_ctrls.dram.perBankWrBursts::0          432                       # Per bank write bursts
system.mem_ctrls.dram.perBankWrBursts::1          402                       # Per bank write bursts
system.mem_ctrls.dram.perBankWrBursts::2          434                       # Per bank write bursts
system.mem_ctrls.dram.perBankWrBursts::3          471                       # Per bank write bursts
system.mem_ctrls.dram.perBankWrBursts::4          353                       # Per bank write bursts
system.mem_ctrls.dram.perBankWrBursts::5          344                       # Per bank write bursts
system.mem_ctrls.dram.perBankWrBursts::6          393                       # Per bank write bursts
system.mem_ctrls.dram.perBankWrBursts::7          408                       # Per bank write bursts
system.mem_ctrls.dram.perBankWrBursts::8          407                       # Per bank write bursts
system.mem_ctrls.dram.perBankWrBursts::9          420                       # Per bank write bursts
system.mem_ctrls.dram.perBankWrBursts::10          413                       # Per bank write bursts
system.mem_ctrls.dram.perBankWrBursts::11          407                       # Per bank write bursts
system.mem_ctrls.dram.perBankWrBursts::12          408                       # Per bank write bursts
system.mem_ctrls.dram.perBankWrBursts::13          413                       # Per bank write bursts
system.mem_ctrls.dram.perBankWrBursts::14          396                       # Per bank write bursts
system.mem_ctrls.dram.perBankWrBursts::15          442                       # Per bank write bursts
system.mem_ctrls.dram.totQLat               305169500                       # Total ticks spent queuing
system.mem_ctrls.dram.totBusLat             199550000                       # Total ticks spent in databus transfers
system.mem_ctrls.dram.totMemAccLat         1053482000                       # Total ticks spent from burst creation until serviced by the DRAM
system.mem_ctrls.dram.avgQLat                 7646.44                       # Average queueing delay per DRAM burst
system.mem_ctrls.dram.avgBusLat               5000.00                       # Average bus latency per DRAM burst
system.mem_ctrls.dram.avgMemAccLat           26396.44                       # Average memory access latency per DRAM burst
system.mem_ctrls.dram.readRowHits               29549                       # Number of row buffer hits during reads
system.mem_ctrls.dram.writeRowHits               5527                       # Number of row buffer hits during writes
system.mem_ctrls.dram.readRowHitRate            74.04                       # Row buffer hit rate for reads
system.mem_ctrls.dram.writeRowHitRate           84.47                       # Row buffer hit rate for writes
system.mem_ctrls.dram.bytesPerActivate::samples        11377                       # Bytes accessed per row activation
system.mem_ctrls.dram.bytesPerActivate::mean   261.315988                       # Bytes accessed per row activation
system.mem_ctrls.dram.bytesPerActivate::gmean   200.646991                       # Bytes accessed per row activation
system.mem_ctrls.dram.bytesPerActivate::stdev   226.891132                       # Bytes accessed per row activation
system.mem_ctrls.dram.bytesPerActivate::0-127         1321     11.61%     11.61% # Bytes accessed per row activation
system.mem_ctrls.dram.bytesPerActivate::128-255         7285     64.03%     75.64% # Bytes accessed per row activation
system.mem_ctrls.dram.bytesPerActivate::256-383          852      7.49%     83.13% # Bytes accessed per row activation
system.mem_ctrls.dram.bytesPerActivate::384-511          265      2.33%     85.46% # Bytes accessed per row activation
system.mem_ctrls.dram.bytesPerActivate::512-639          456      4.01%     89.47% # Bytes accessed per row activation
system.mem_ctrls.dram.bytesPerActivate::640-767          285      2.51%     91.98% # Bytes accessed per row activation
system.mem_ctrls.dram.bytesPerActivate::768-895          324      2.85%     94.82% # Bytes accessed per row activation
system.mem_ctrls.dram.bytesPerActivate::896-1023          380      3.34%     98.16% # Bytes accessed per row activation
system.mem_ctrls.dram.bytesPerActivate::1024-1151          209      1.84%    100.00% # Bytes accessed per row activation
system.mem_ctrls.dram.bytesPerActivate::total        11377                       # Bytes accessed per row activation
system.mem_ctrls.dram.bytesRead               2554240                       # Total number of bytes read from DRAM
system.mem_ctrls.dram.bytesWritten             418752                       # Total number of bytes written to DRAM
system.mem_ctrls.dram.avgRdBW               40.831964                       # Average DRAM read bandwidth in MiBytes/s
system.mem_ctrls.dram.avgWrBW                6.694150                       # Average DRAM write bandwidth in MiBytes/s
system.mem_ctrls.dram.peakBW                 12800.00                       # Theoretical peak bandwidth in MiByte/s
system.mem_ctrls.dram.busUtil                    0.37                       # Data bus utilization in percentage
system.mem_ctrls.dram.busUtilRead                0.32                       # Data bus utilization in percentage for reads
system.mem_ctrls.dram.busUtilWrite               0.05                       # Data bus utilization in percentage for writes
system.mem_ctrls.dram.pageHitRate               75.51                       # Row buffer hit rate, read and write combined
system.mem_ctrls.dram.power_state.pwrStateResidencyTicks::UNDEFINED  62554913500                       # Cumulative time (in ticks) in various power states
system.mem_ctrls.dram.rank0.actEnergy        41262060                       # Energy for activate commands per rank (pJ)
system.mem_ctrls.dram.rank0.preEnergy        21931305                       # Energy for precharge commands per rank (pJ)
system.mem_ctrls.dram.rank0.readEnergy      141850380                       # Energy for read commands per rank (pJ)
system.mem_ctrls.dram.rank0.writeEnergy      16897140                       # Energy for write commands per rank (pJ)
system.mem_ctrls.dram.rank0.refreshEnergy 4938017760.000001                       # Energy for refresh commands per rank (pJ)
system.mem_ctrls.dram.rank0.actBackEnergy  13371846030                       # Energy for active background per rank (pJ)
system.mem_ctrls.dram.rank0.preBackEnergy  12760615200                       # Energy for precharge background per rank (pJ)
system.mem_ctrls.dram.rank0.actPowerDownEnergy            0                       # Energy for active power-down per rank (pJ)
system.mem_ctrls.dram.rank0.prePowerDownEnergy            0                       # Energy for precharge power-down per rank (pJ)
system.mem_ctrls.dram.rank0.selfRefreshEnergy            0                       # Energy for self refresh per rank (pJ)
system.mem_ctrls.dram.rank0.totalEnergy   31292419875                       # Total energy per rank (pJ)
system.mem_ctrls.dram.rank0.averagePower   500.239200                       # Core power per rank (mW)
system.mem_ctrls.dram.rank0.totalIdleTime            0                       # Total Idle time Per DRAM Rank
system.mem_ctrls.dram.rank0.pwrStateTime::IDLE  33055906250                       # Time in different power states
system.mem_ctrls.dram.rank0.pwrStateTime::REF   2088747250                       # Time in different power states
system.mem_ctrls.dram.rank0.pwrStateTime::SREF            0                       # Time in different power states
system.mem_ctrls.dram.rank0.pwrStateTime::PRE_PDN            0                       # Time in different power states
system.mem_ctrls.dram.rank0.pwrStateTime::ACT  27410260000                       # Time in different power states
system.mem_ctrls.dram.rank0.pwrStateTime::ACT_PDN            0                       # Time in different power states
system.mem_ctrls.dram.rank1.actEnergy        39969720                       # Energy for activate commands per rank (pJ)
system.mem_ctrls.dram.rank1.preEnergy        21244410                       # Energy for precharge commands per rank (pJ)
system.mem_ctrls.dram.rank1.readEnergy      143107020                       # Energy for read commands per rank (pJ)
system.mem_ctrls.dram.rank1.writeEnergy      17257320                       # Energy for write commands per rank (pJ)
system.mem_ctrls.dram.rank1.refreshEnergy 4938017760.000001                       # Energy for refresh commands per rank (pJ)
system.mem_ctrls.dram.rank1.actBackEnergy  13165625160                       # Energy for active background per rank (pJ)
system.mem_ctrls.dram.rank1.preBackEnergy  12934269600                       # Energy for precharge background per rank (pJ)
system.mem_ctrls.dram.rank1.actPowerDownEnergy            0                       # Energy for active power-down per rank (pJ)
system.mem_ctrls.dram.rank1.prePowerDownEnergy            0                       # Energy for precharge power-down per rank (pJ)
system.mem_ctrls.dram.rank1.selfRefreshEnergy            0                       # Energy for self refresh per rank (pJ)
system.mem_ctrls.dram.rank1.totalEnergy   31259490990                       # Total energy per rank (pJ)
system.mem_ctrls.dram.rank1.averagePower   499.712800                       # Core power per rank (mW)
system.mem_ctrls.dram.rank1.totalIdleTime            0                       # Total Idle time Per DRAM Rank
system.mem_ctrls.dram.rank1.pwrStateTime::IDLE  33508552500                       # Time in different power states
system.mem_ctrls.dram.rank1.pwrStateTime::REF   2088761000                       # Time in different power states
system.mem_ctrls.dram.rank1.pwrStateTime::SREF            0                       # Time in different power states
system.mem_ctrls.dram.rank1.pwrStateTime::PRE_PDN            0                       # Time in different power states
system.mem_ctrls.dram.rank1.pwrStateTime::ACT  26957600000                       # Time in different power states
system.mem_ctrls.dram.rank1.pwrStateTime::ACT_PDN            0                       # Time in different power states
system.mem_ctrls.power_state.pwrStateResidencyTicks::UNDEFINED  62554913500                       # Cumulative time (in ticks) in various power states
system.membus.trans_dist::ReadResp               1102                       # Transaction distribution
system.membus.trans_dist::WritebackDirty         6562                       # Transaction distribution
system.membus.trans_dist::CleanEvict              175                       # Transaction distribution
system.membus.trans_dist::ReadExReq             38810                       # Transaction distribution
system.membus.trans_dist::ReadExResp            38810                       # Transaction distribution
system.membus.trans_dist::ReadSharedReq          1102                       # Transaction distribution
system.membus.pkt_count_system.l2.mem_side_port::system.mem_ctrls.port        86561                       # Packet count per connected requestor and responder (bytes)
system.membus.pkt_count::total                  86561                       # Packet count per connected requestor and responder (bytes)
system.membus.pkt_size_system.l2.mem_side_port::system.mem_ctrls.port      2974336                       # Cumulative packet size per connected requestor and responder (bytes)
system.membus.pkt_size::total                 2974336                       # Cumulative packet size per connected requestor and responder (bytes)
system.membus.snoops                                0                       # Total snoops (count)
system.membus.snoopTraffic                          0                       # Total snoop traffic (bytes)
system.membus.snoop_fanout::samples             39912                       # Request fanout histogram
system.membus.snoop_fanout::mean                    0                       # Request fanout histogram
system.membus.snoop_fanout::stdev                   0                       # Request fanout histogram
system.membus.snoop_fanout::underflows              0      0.00%      0.00% # Request fanout histogram
system.membus.snoop_fanout::0                   39912    100.00%    100.00% # Request fanout histogram
system.membus.snoop_fanout::1                       0      0.00%    100.00% # Request fanout histogram
system.membus.snoop_fanout::overflows               0      0.00%    100.00% # Request fanout histogram
system.membus.snoop_fanout::min_value               0                       # Request fanout histogram
system.membus.snoop_fanout::max_value               0                       # Request fanout histogram
system.membus.snoop_fanout::total               39912                       # Request fanout histogram
system.membus.power_state.pwrStateResidencyTicks::UNDEFINED  62554913500                       # Cumulative time (in ticks) in various power states
system.membus.reqLayer0.occupancy            80058500                       # Layer occupancy (ticks)
system.membus.reqLayer0.utilization               0.1                       # Layer utilization (%)
system.membus.respLayer1.occupancy          212065750                       # Layer occupancy (ticks)
system.membus.respLayer1.utilization              0.3                       # Layer utilization (%)
system.tol2bus.trans_dist::ReadResp            550339                       # Transaction distribution
system.tol2bus.trans_dist::WritebackDirty        56475                       # Transaction distribution
system.tol2bus.trans_dist::WritebackClean       534721                       # Transaction distribution
system.tol2bus.trans_dist::CleanEvict            3694                       # Transaction distribution
system.tol2bus.trans_dist::ReadExReq            38819                       # Transaction distribution
system.tol2bus.trans_dist::ReadExResp           38819                       # Transaction distribution
system.tol2bus.trans_dist::ReadCleanReq        535123                       # Transaction distribution
system.tol2bus.trans_dist::ReadSharedReq        15216                       # Transaction distribution
system.tol2bus.pkt_count_system.cpu.icache.mem_side_port::system.l2.cpu_side_port      1604967                       # Packet count per connected requestor and responder (bytes)
system.tol2bus.pkt_count_system.cpu.dcache.mem_side_port::system.l2.cpu_side_port       161081                       # Packet count per connected requestor and responder (bytes)
system.tol2bus.pkt_count::total               1766048                       # Packet count per connected requestor and responder (bytes)
system.tol2bus.pkt_size_system.cpu.icache.mem_side_port::system.l2.cpu_side_port     68470016                       # Cumulative packet size per connected requestor and responder (bytes)
system.tol2bus.pkt_size_system.cpu.dcache.mem_side_port::system.l2.cpu_side_port      6652672                       # Cumulative packet size per connected requestor and responder (bytes)
system.tol2bus.pkt_size::total               75122688                       # Cumulative packet size per connected requestor and responder (bytes)
system.tol2bus.snoops                            7158                       # Total snoops (count)
system.tol2bus.snoopTraffic                    419968                       # Total snoop traffic (bytes)
system.tol2bus.snoop_fanout::samples           596316                       # Request fanout histogram
system.tol2bus.snoop_fanout::mean            0.000766                       # Request fanout histogram
system.tol2bus.snoop_fanout::stdev           0.027914                       # Request fanout histogram
system.tol2bus.snoop_fanout::underflows             0      0.00%      0.00% # Request fanout histogram
system.tol2bus.snoop_fanout::0                 595863     99.92%     99.92% # Request fanout histogram
system.tol2bus.snoop_fanout::1                    449      0.08%    100.00% # Request fanout histogram
system.tol2bus.snoop_fanout::2                      4      0.00%    100.00% # Request fanout histogram
system.tol2bus.snoop_fanout::overflows              0      0.00%    100.00% # Request fanout histogram
system.tol2bus.snoop_fanout::min_value              0                       # Request fanout histogram
system.tol2bus.snoop_fanout::max_value              2                       # Request fanout histogram
system.tol2bus.snoop_fanout::total             596316                       # Request fanout histogram
system.tol2bus.power_state.pwrStateResidencyTicks::UNDEFINED  62554913500                       # Cumulative time (in ticks) in various power states
system.tol2bus.reqLayer0.occupancy         1173079000                       # Layer occupancy (ticks)
system.tol2bus.reqLayer0.utilization              1.9                       # Layer utilization (%)
system.tol2bus.respLayer0.occupancy         802684999                       # Layer occupancy (ticks)
system.tol2bus.respLayer0.utilization             1.3                       # Layer utilization (%)
system.tol2bus.respLayer1.occupancy          81054995                       # Layer occupancy (ticks)
system.tol2bus.respLayer1.utilization             0.1                       # Layer utilization (%)
system.voltage_domain.voltage                       1                       # Voltage in Volts

---------- End Simulation Statistics   ----------
