
---------- Begin Simulation Statistics ----------
final_tick                                62550583500                       # Number of ticks from beginning of simulation (restored from checkpoints and never reset)
host_inst_rate                                 385909                       # Simulator instruction rate (inst/s)
host_mem_usage                                 668508                       # Number of bytes of host memory used
host_op_rate                                   422305                       # Simulator op (including micro ops) rate (op/s)
host_seconds                                   259.13                       # Real time elapsed on the host
host_tick_rate                              241388515                       # Simulator tick rate (ticks/s)
sim_freq                                 1000000000000                       # Frequency of simulated ticks
sim_insts                                   100000001                       # Number of instructions simulated
sim_ops                                     109431277                       # Number of ops (including micro ops) simulated
sim_seconds                                  0.062551                       # Number of seconds simulated
sim_ticks                                 62550583500                       # Number of ticks simulated
system.cpu.committedInsts                   100000001                       # Number of instructions committed
system.cpu.committedOps                     109431277                       # Number of ops (including micro ops) committed
system.cpu.cpi                               1.251012                       # CPI: cycles per instruction
system.cpu.discardedOps                        376466                       # Number of ops (including micro ops) which were discarded before commit
system.cpu.idleCycles                        10547824                       # Total number of cycles that the object has spent stopped
system.cpu.ipc                               0.799353                       # IPC: instructions per cycle
system.cpu.numCycles                        125101167                       # number of cpu cycles simulated
system.cpu.numFetchSuspends                         0                       # Number of times Execute suspended instruction fetching
system.cpu.numWorkItemsCompleted                    0                       # number of work items this cpu completed
system.cpu.numWorkItemsStarted                      0                       # number of work items this cpu started
system.cpu.op_class_0::No_OpClass                   0      0.00%      0.00% # Class of committed instruction
system.cpu.op_class_0::IntAlu                72955010     66.67%     66.67% # Class of committed instruction
system.cpu.op_class_0::IntMult                 568364      0.52%     67.19% # Class of committed instruction
system.cpu.op_class_0::IntDiv                       0      0.00%     67.19% # Class of committed instruction
system.cpu.op_class_0::FloatAdd                     0      0.00%     67.19% # Class of committed instruction
system.cpu.op_class_0::FloatCmp                     0      0.00%     67.19% # Class of committed instruction
system.cpu.op_class_0::FloatCvt                     0      0.00%     67.19% # Class of committed instruction
system.cpu.op_class_0::FloatMult                    0      0.00%     67.19% # Class of committed instruction
system.cpu.op_class_0::FloatMultAcc                 0      0.00%     67.19% # Class of committed instruction
system.cpu.op_class_0::FloatDiv                     0      0.00%     67.19% # Class of committed instruction
system.cpu.op_class_0::FloatMisc                    0      0.00%     67.19% # Class of committed instruction
system.cpu.op_class_0::FloatSqrt                    0      0.00%     67.19% # Class of committed instruction
system.cpu.op_class_0::SimdAdd                 241336      0.22%     67.41% # Class of committed instruction
system.cpu.op_class_0::SimdAddAcc                   0      0.00%     67.41% # Class of committed instruction
system.cpu.op_class_0::SimdAlu                 154628      0.14%     67.55% # Class of committed instruction
system.cpu.op_class_0::SimdCmp                 120668      0.11%     67.66% # Class of committed instruction
system.cpu.op_class_0::SimdCvt                      0      0.00%     67.66% # Class of committed instruction
system.cpu.op_class_0::SimdMisc                 44543      0.04%     67.70% # Class of committed instruction
system.cpu.op_class_0::SimdMult                     0      0.00%     67.70% # Class of committed instruction
system.cpu.op_class_0::SimdMultAcc                  0      0.00%     67.70% # Class of committed instruction
system.cpu.op_class_0::SimdShift                    0      0.00%     67.70% # Class of committed instruction
system.cpu.op_class_0::SimdShiftAcc                 0      0.00%     67.70% # Class of committed instruction
system.cpu.op_class_0::SimdDiv                      0      0.00%     67.70% # Class of committed instruction
system.cpu.op_class_0::SimdSqrt                     0      0.00%     67.70% # Class of committed instruction
system.cpu.op_class_0::SimdFloatAdd                 0      0.00%     67.70% # Class of committed instruction
system.cpu.op_class_0::SimdFloatAlu                 0      0.00%     67.70% # Class of committed instruction
system.cpu.op_class_0::SimdFloatCmp                 0      0.00%     67.70% # Class of committed instruction
system.cpu.op_class_0::SimdFloatCvt                 0      0.00%     67.70% # Class of committed instruction
system.cpu.op_class_0::SimdFloatDiv                 0      0.00%     67.70% # Class of committed instruction
system.cpu.op_class_0::SimdFloatMisc           166417      0.15%     67.85% # Class of committed instruction
system.cpu.op_class_0::SimdFloatMult                0      0.00%     67.85% # Class of committed instruction
system.cpu.op_class_0::SimdFloatMultAcc             0      0.00%     67.85% # Class of committed instruction
system.cpu.op_class_0::SimdFloatSqrt                0      0.00%     67.85% # Class of committed instruction
system.cpu.op_class_0::SimdReduceAdd                0      0.00%     67.85% # Class of committed instruction
system.cpu.op_class_0::SimdReduceAlu                0      0.00%     67.85% # Class of committed instruction
system.cpu.op_class_0::SimdReduceCmp                0      0.00%     67.85% # Class of committed instruction
system.cpu.op_class_0::SimdFloatReduceAdd            0      0.00%     67.85% # Class of committed instruction
system.cpu.op_class_0::SimdFloatReduceCmp            0      0.00%     67.85% # Class of committed instruction
system.cpu.op_class_0::SimdAes                      0      0.00%     67.85% # Class of committed instruction
system.cpu.op_class_0::SimdAesMix                   0      0.00%     67.85% # Class of committed instruction
system.cpu.op_class_0::SimdSha1Hash                 0      0.00%     67.85% # Class of committed instruction
system.cpu.op_class_0::SimdSha1Hash2                0      0.00%     67.85% # Class of committed instruction
system.cpu.op_class_0::SimdSha256Hash               0      0.00%     67.85% # Class of committed instruction
system.cpu.op_class_0::SimdSha256Hash2              0      0.00%     67.85% # Class of committed instruction
system.cpu.op_class_0::SimdShaSigma2                0      0.00%     67.85% # Class of committed instruction
system.cpu.op_class_0::SimdShaSigma3                0      0.00%     67.85% # Class of committed instruction
system.cpu.op_class_0::SimdPredAlu                  0      0.00%     67.85% # Class of committed instruction
system.cpu.op_class_0::MemRead               20645992     18.87%     86.72% # Class of committed instruction
system.cpu.op_class_0::MemWrite              14534319     13.28%    100.00% # Class of committed instruction
system.cpu.op_class_0::FloatMemRead                 0      0.00%    100.00% # Class of committed instruction
system.cpu.op_class_0::FloatMemWrite                0      0.00%    100.00% # Class of committed instruction
system.cpu.op_class_0::IprAccess                    0      0.00%    100.00% # Class of committed instruction
system.cpu.op_class_0::InstPrefetch                 0      0.00%    100.00% # Class of committed instruction
system.cpu.op_class_0::total                109431277                       # Class of committed instruction
system.cpu.tickCycles                       114553343                       # Number of cycles that the object actually ticked
system.cpu.workload.numSyscalls                    87                       # Number of system calls
system.membus.snoop_filter.hit_multi_requests            0                       # Number of requests hitting in the snoop filter with multiple (>1) holders of the requested data.
system.membus.snoop_filter.hit_multi_snoops            0                       # Number of snoops hitting in the snoop filter with multiple (>1) holders of the requested data.
system.membus.snoop_filter.hit_single_requests         6710                       # Number of requests hitting in the snoop filter with a single holder of the requested data.
system.membus.snoop_filter.hit_single_snoops            0                       # Number of snoops hitting in the snoop filter with a single holder of the requested data.
system.membus.snoop_filter.tot_requests         46588                       # Total number of requests made to the snoop filter.
system.membus.snoop_filter.tot_snoops               0                       # Total number of snoops made to the snoop filter.
system.tol2bus.snoop_filter.hit_multi_requests           27                       # Number of requests hitting in the snoop filter with multiple (>1) holders of the requested data.
system.tol2bus.snoop_filter.hit_multi_snoops            4                       # Number of snoops hitting in the snoop filter with multiple (>1) holders of the requested data.
system.tol2bus.snoop_filter.hit_single_requests       587736                       # Number of requests hitting in the snoop filter with a single holder of the requested data.
system.tol2bus.snoop_filter.hit_single_snoops          410                       # Number of snoops hitting in the snoop filter with a single holder of the requested data.
system.tol2bus.snoop_filter.tot_requests      1176890                       # Total number of requests made to the snoop filter.
system.tol2bus.snoop_filter.tot_snoops            414                       # Total number of snoops made to the snoop filter.
system.clk_domain.clock                          1000                       # Clock period in ticks
system.cpu.branchPred.lookups                20360236                       # Number of BP lookups
system.cpu.branchPred.condPredicted          16297474                       # Number of conditional branches predicted
system.cpu.branchPred.condIncorrect             53386                       # Number of conditional branches incorrect
system.cpu.branchPred.BTBLookups              8737472                       # Number of BTB lookups
system.cpu.branchPred.BTBHits                 8736078                       # Number of BTB hits
system.cpu.branchPred.BTBHitPct             99.984046                       # BTB Hit Percentage
system.cpu.branchPred.RASUsed                 1050570                       # Number of times the RAS was used to get a target.
system.cpu.branchPred.RASIncorrect                325                       # Number of incorrect RAS predictions.
system.cpu.branchPred.indirectLookups          434000                       # Number of indirect predictor lookups.
system.cpu.branchPred.indirectHits             300030                       # Number of indirect target hits.
system.cpu.branchPred.indirectMisses           133970                       # Number of indirect misses.
system.cpu.branchPred.indirectMispredicted         1037                       # Number of mispredicted indirect branches.
system.cpu.dcache.demand_hits::.cpu.data     35612571                       # number of demand (read+write) hits
system.cpu.dcache.demand_hits::total         35612571                       # number of demand (read+write) hits
system.cpu.dcache.overall_hits::.cpu.data     35615890                       # number of overall hits
system.cpu.dcache.overall_hits::total        35615890                       # number of overall hits
system.cpu.dcache.demand_misses::.cpu.data        73567                       # number of demand (read+write) misses
system.cpu.dcache.demand_misses::total          73567                       # number of demand (read+write) misses
system.cpu.dcache.overall_misses::.cpu.data        73609                       # number of overall misses
system.cpu.dcache.overall_misses::total         73609                       # number of overall misses
system.cpu.dcache.demand_miss_latency::.cpu.data   4393294500                       # number of demand (read+write) miss cycles
system.cpu.dcache.demand_miss_latency::total   4393294500                       # number of demand (read+write) miss cycles
system.cpu.dcache.overall_miss_latency::.cpu.data   4393294500                       # number of overall miss cycles
system.cpu.dcache.overall_miss_latency::total   4393294500                       # number of overall miss cycles
system.cpu.dcache.demand_accesses::.cpu.data     35686138                       # number of demand (read+write) accesses
system.cpu.dcache.demand_accesses::total     35686138                       # number of demand (read+write) accesses
system.cpu.dcache.overall_accesses::.cpu.data     35689499                       # number of overall (read+write) accesses
system.cpu.dcache.overall_accesses::total     35689499                       # number of overall (read+write) accesses
system.cpu.dcache.demand_miss_rate::.cpu.data     0.002062                       # miss rate for demand accesses
system.cpu.dcache.demand_miss_rate::total     0.002062                       # miss rate for demand accesses
system.cpu.dcache.overall_miss_rate::.cpu.data     0.002062                       # miss rate for overall accesses
system.cpu.dcache.overall_miss_rate::total     0.002062                       # miss rate for overall accesses
system.cpu.dcache.demand_avg_miss_latency::.cpu.data 59718.277217                       # average overall miss latency
system.cpu.dcache.demand_avg_miss_latency::total 59718.277217                       # average overall miss latency
system.cpu.dcache.overall_avg_miss_latency::.cpu.data 59684.203019                       # average overall miss latency
system.cpu.dcache.overall_avg_miss_latency::total 59684.203019                       # average overall miss latency
system.cpu.dcache.blocked_cycles::no_mshrs            0                       # number of cycles access was blocked
system.cpu.dcache.blocked_cycles::no_targets            0                       # number of cycles access was blocked
system.cpu.dcache.blocked::no_mshrs                 0                       # number of cycles access was blocked
system.cpu.dcache.blocked::no_targets               0                       # number of cycles access was blocked
system.cpu.dcache.avg_blocked_cycles::no_mshrs          nan                       # average number of cycles each access was blocked
system.cpu.dcache.avg_blocked_cycles::no_targets          nan                       # average number of cycles each access was blocked
system.cpu.dcache.writebacks::.writebacks        49913                       # number of writebacks
system.cpu.dcache.writebacks::total             49913                       # number of writebacks
system.cpu.dcache.demand_mshr_hits::.cpu.data        19569                       # number of demand (read+write) MSHR hits
system.cpu.dcache.demand_mshr_hits::total        19569                       # number of demand (read+write) MSHR hits
system.cpu.dcache.overall_mshr_hits::.cpu.data        19569                       # number of overall MSHR hits
system.cpu.dcache.overall_mshr_hits::total        19569                       # number of overall MSHR hits
system.cpu.dcache.demand_mshr_misses::.cpu.data        53998                       # number of demand (read+write) MSHR misses
system.cpu.dcache.demand_mshr_misses::total        53998                       # number of demand (read+write) MSHR misses
system.cpu.dcache.overall_mshr_misses::.cpu.data        54035                       # number of overall MSHR misses
system.cpu.dcache.overall_mshr_misses::total        54035                       # number of overall MSHR misses
system.cpu.dcache.demand_mshr_miss_latency::.cpu.data   3277284500                       # number of demand (read+write) MSHR miss cycles
system.cpu.dcache.demand_mshr_miss_latency::total   3277284500                       # number of demand (read+write) MSHR miss cycles
system.cpu.dcache.overall_mshr_miss_latency::.cpu.data   3278590500                       # number of overall MSHR miss cycles
system.cpu.dcache.overall_mshr_miss_latency::total   3278590500                       # number of overall MSHR miss cycles
system.cpu.dcache.demand_mshr_miss_rate::.cpu.data     0.001513                       # mshr miss rate for demand accesses
system.cpu.dcache.demand_mshr_miss_rate::total     0.001513                       # mshr miss rate for demand accesses
system.cpu.dcache.overall_mshr_miss_rate::.cpu.data     0.001514                       # mshr miss rate for overall accesses
system.cpu.dcache.overall_mshr_miss_rate::total     0.001514                       # mshr miss rate for overall accesses
system.cpu.dcache.demand_avg_mshr_miss_latency::.cpu.data 60692.701582                       # average overall mshr miss latency
system.cpu.dcache.demand_avg_mshr_miss_latency::total 60692.701582                       # average overall mshr miss latency
system.cpu.dcache.overall_avg_mshr_miss_latency::.cpu.data 60675.312298                       # average overall mshr miss latency
system.cpu.dcache.overall_avg_mshr_miss_latency::total 60675.312298                       # average overall mshr miss latency
system.cpu.dcache.replacements                  53011                       # number of replacements
system.cpu.dcache.ReadReq_hits::.cpu.data     21413647                       # number of ReadReq hits
system.cpu.dcache.ReadReq_hits::total        21413647                       # number of ReadReq hits
system.cpu.dcache.ReadReq_misses::.cpu.data        18223                       # number of ReadReq misses
system.cpu.dcache.ReadReq_misses::total         18223                       # number of ReadReq misses
system.cpu.dcache.ReadReq_miss_latency::.cpu.data    290874500                       # number of ReadReq miss cycles
system.cpu.dcache.ReadReq_miss_latency::total    290874500                       # number of ReadReq miss cycles
system.cpu.dcache.ReadReq_accesses::.cpu.data     21431870                       # number of ReadReq accesses(hits+misses)
system.cpu.dcache.ReadReq_accesses::total     21431870                       # number of ReadReq accesses(hits+misses)
system.cpu.dcache.ReadReq_miss_rate::.cpu.data     0.000850                       # miss rate for ReadReq accesses
system.cpu.dcache.ReadReq_miss_rate::total     0.000850                       # miss rate for ReadReq accesses
system.cpu.dcache.ReadReq_avg_miss_latency::.cpu.data 15961.943698                       # average ReadReq miss latency
system.cpu.dcache.ReadReq_avg_miss_latency::total 15961.943698                       # average ReadReq miss latency
system.cpu.dcache.ReadReq_mshr_hits::.cpu.data         3044                       # number of ReadReq MSHR hits
system.cpu.dcache.ReadReq_mshr_hits::total         3044                       # number of ReadReq MSHR hits
system.cpu.dcache.ReadReq_mshr_misses::.cpu.data        15179                       # number of ReadReq MSHR misses
system.cpu.dcache.ReadReq_mshr_misses::total        15179                       # number of ReadReq MSHR misses
system.cpu.dcache.ReadReq_mshr_miss_latency::.cpu.data    224288000                       # number of ReadReq MSHR miss cycles
system.cpu.dcache.ReadReq_mshr_miss_latency::total    224288000                       # number of ReadReq MSHR miss cycles
system.cpu.dcache.ReadReq_mshr_miss_rate::.cpu.data     0.000708                       # mshr miss rate for ReadReq accesses
system.cpu.dcache.ReadReq_mshr_miss_rate::total     0.000708                       # mshr miss rate for ReadReq accesses
system.cpu.dcache.ReadReq_avg_mshr_miss_latency::.cpu.data 14776.203966                       # average ReadReq mshr miss latency
system.cpu.dcache.ReadReq_avg_mshr_miss_latency::total 14776.203966                       # average ReadReq mshr miss latency
system.cpu.dcache.WriteReq_hits::.cpu.data     14198924                       # number of WriteReq hits
system.cpu.dcache.WriteReq_hits::total       14198924                       # number of WriteReq hits
system.cpu.dcache.WriteReq_misses::.cpu.data        55344                       # number of WriteReq misses
system.cpu.dcache.WriteReq_misses::total        55344                       # number of WriteReq misses
system.cpu.dcache.WriteReq_miss_latency::.cpu.data   4102420000                       # number of WriteReq miss cycles
system.cpu.dcache.WriteReq_miss_latency::total   4102420000                       # number of WriteReq miss cycles
system.cpu.dcache.WriteReq_accesses::.cpu.data     14254268                       # number of WriteReq accesses(hits+misses)
system.cpu.dcache.WriteReq_accesses::total     14254268                       # number of WriteReq accesses(hits+misses)
system.cpu.dcache.WriteReq_miss_rate::.cpu.data     0.003883                       # miss rate for WriteReq accesses
system.cpu.dcache.WriteReq_miss_rate::total     0.003883                       # miss rate for WriteReq accesses
system.cpu.dcache.WriteReq_avg_miss_latency::.cpu.data 74125.831165                       # average WriteReq miss latency
system.cpu.dcache.WriteReq_avg_miss_latency::total 74125.831165                       # average WriteReq miss latency
system.cpu.dcache.WriteReq_mshr_hits::.cpu.data        16525                       # number of WriteReq MSHR hits
system.cpu.dcache.WriteReq_mshr_hits::total        16525                       # number of WriteReq MSHR hits
system.cpu.dcache.WriteReq_mshr_misses::.cpu.data        38819                       # number of WriteReq MSHR misses
system.cpu.dcache.WriteReq_mshr_misses::total        38819                       # number of WriteReq MSHR misses
system.cpu.dcache.WriteReq_mshr_miss_latency::.cpu.data   3052996500                       # number of WriteReq MSHR miss cycles
system.cpu.dcache.WriteReq_mshr_miss_latency::total   3052996500                       # number of WriteReq MSHR miss cycles
system.cpu.dcache.WriteReq_mshr_miss_rate::.cpu.data     0.002723                       # mshr miss rate for WriteReq accesses
system.cpu.dcache.WriteReq_mshr_miss_rate::total     0.002723                       # mshr miss rate for WriteReq accesses
system.cpu.dcache.WriteReq_avg_mshr_miss_latency::.cpu.data 78646.964116                       # average WriteReq mshr miss latency
system.cpu.dcache.WriteReq_avg_mshr_miss_latency::total 78646.964116                       # average WriteReq mshr miss latency
system.cpu.dcache.SoftPFReq_hits::.cpu.data         3319                       # number of SoftPFReq hits
system.cpu.dcache.SoftPFReq_hits::total          3319                       # number of SoftPFReq hits
system.cpu.dcache.SoftPFReq_misses::.cpu.data           42                       # number of SoftPFReq misses
system.cpu.dcache.SoftPFReq_misses::total           42                       # number of SoftPFReq misses
system.cpu.dcache.SoftPFReq_accesses::.cpu.data         3361                       # number of SoftPFReq accesses(hits+misses)
system.cpu.dcache.SoftPFReq_accesses::total         3361                       # number of SoftPFReq accesses(hits+misses)
system.cpu.dcache.SoftPFReq_miss_rate::.cpu.data     0.012496                       # miss rate for SoftPFReq accesses
system.cpu.dcache.SoftPFReq_miss_rate::total     0.012496                       # miss rate for SoftPFReq accesses
system.cpu.dcache.SoftPFReq_mshr_misses::.cpu.data           37                       # number of SoftPFReq MSHR misses
system.cpu.dcache.SoftPFReq_mshr_misses::total           37                       # number of SoftPFReq MSHR misses
system.cpu.dcache.SoftPFReq_mshr_miss_latency::.cpu.data      1306000                       # number of SoftPFReq MSHR miss cycles
system.cpu.dcache.SoftPFReq_mshr_miss_latency::total      1306000                       # number of SoftPFReq MSHR miss cycles
system.cpu.dcache.SoftPFReq_mshr_miss_rate::.cpu.data     0.011009                       # mshr miss rate for SoftPFReq accesses
system.cpu.dcache.SoftPFReq_mshr_miss_rate::total     0.011009                       # mshr miss rate for SoftPFReq accesses
system.cpu.dcache.SoftPFReq_avg_mshr_miss_latency::.cpu.data 35297.297297                       # average SoftPFReq mshr miss latency
system.cpu.dcache.SoftPFReq_avg_mshr_miss_latency::total 35297.297297                       # average SoftPFReq mshr miss latency
system.cpu.dcache.LoadLockedReq_hits::.cpu.data        89080                       # number of LoadLockedReq hits
system.cpu.dcache.LoadLockedReq_hits::total        89080                       # number of LoadLockedReq hits
system.cpu.dcache.LoadLockedReq_accesses::.cpu.data        89080                       # number of LoadLockedReq accesses(hits+misses)
system.cpu.dcache.LoadLockedReq_accesses::total        89080                       # number of LoadLockedReq accesses(hits+misses)
system.cpu.dcache.StoreCondReq_hits::.cpu.data        89080                       # number of StoreCondReq hits
system.cpu.dcache.StoreCondReq_hits::total        89080                       # number of StoreCondReq hits
system.cpu.dcache.StoreCondReq_accesses::.cpu.data        89080                       # number of StoreCondReq accesses(hits+misses)
system.cpu.dcache.StoreCondReq_accesses::total        89080                       # number of StoreCondReq accesses(hits+misses)
system.cpu.dcache.power_state.pwrStateResidencyTicks::UNDEFINED  62550583500                       # Cumulative time (in ticks) in various power states
system.cpu.dcache.tags.tagsinuse          1020.537836                       # Cycle average of tags in use
system.cpu.dcache.tags.total_refs            35848085                       # Total number of references to valid blocks.
system.cpu.dcache.tags.sampled_refs             54035                       # Sample count of references to valid blocks.
system.cpu.dcache.tags.avg_refs            663.423429                       # Average number of references to valid blocks.
system.cpu.dcache.tags.warmup_cycle            176500                       # Cycle when the warmup percentage was hit.
system.cpu.dcache.tags.occ_blocks::.cpu.data  1020.537836                       # Average occupied blocks per requestor
system.cpu.dcache.tags.occ_percent::.cpu.data     0.996619                       # Average percentage of cache occupancy
system.cpu.dcache.tags.occ_percent::total     0.996619                       # Average percentage of cache occupancy
system.cpu.dcache.tags.occ_task_id_blocks::1024         1024                       # Occupied blocks per task id
system.cpu.dcache.tags.age_task_id_blocks_1024::0            4                       # Occupied blocks per task id
system.cpu.dcache.tags.age_task_id_blocks_1024::1           38                       # Occupied blocks per task id
system.cpu.dcache.tags.age_task_id_blocks_1024::2          517                       # Occupied blocks per task id
system.cpu.dcache.tags.age_task_id_blocks_1024::3          424                       # Occupied blocks per task id
system.cpu.dcache.tags.age_task_id_blocks_1024::4           41                       # Occupied blocks per task id
system.cpu.dcache.tags.occ_task_id_percent::1024            1                       # Percentage of cache occupancy per task id
system.cpu.dcache.tags.tag_accesses          71789353                       # Number of tag accesses
system.cpu.dcache.tags.data_accesses         71789353                       # Number of data accesses
system.cpu.dcache.tags.power_state.pwrStateResidencyTicks::UNDEFINED  62550583500                       # Cumulative time (in ticks) in various power states
system.cpu.dtb.instHits                             0                       # ITB inst hits
system.cpu.dtb.instMisses                           0                       # ITB inst misses
system.cpu.dtb.readHits                             0                       # DTB read hits
system.cpu.dtb.readMisses                           0                       # DTB read misses
system.cpu.dtb.writeHits                            0                       # DTB write hits
system.cpu.dtb.writeMisses                          0                       # DTB write misses
system.cpu.dtb.inserts                              0                       # Number of times an entry is inserted into the TLB
system.cpu.dtb.flushTlb                             0                       # Number of times complete TLB was flushed
system.cpu.dtb.flushTlbMva                          0                       # Number of times TLB was flushed by MVA
system.cpu.dtb.flushTlbMvaAsid                      0                       # Number of times TLB was flushed by MVA & ASID
system.cpu.dtb.flushTlbAsid                         0                       # Number of times TLB was flushed by ASID
system.cpu.dtb.flushedEntries                       0                       # Number of entries that have been flushed from TLB
system.cpu.dtb.alignFaults                          0                       # Number of TLB faults due to alignment restrictions
system.cpu.dtb.prefetchFaults                       0                       # Number of TLB faults due to prefetch
system.cpu.dtb.domainFaults                         0                       # Number of TLB faults due to domain restrictions
system.cpu.dtb.permsFaults                          0                       # Number of TLB faults due to permissions restrictions
system.cpu.dtb.readAccesses                         0                       # DTB read accesses
system.cpu.dtb.writeAccesses                        0                       # DTB write accesses
system.cpu.dtb.instAccesses                         0                       # ITB inst accesses
system.cpu.dtb.hits                                 0                       # Total TLB (inst and data) hits
system.cpu.dtb.misses                               0                       # Total TLB (inst and data) misses
system.cpu.dtb.accesses                             0                       # Total TLB (inst and data) accesses
system.cpu.dtb.stage2_mmu.stage2_tlb.instHits            0                       # ITB inst hits
system.cpu.dtb.stage2_mmu.stage2_tlb.instMisses            0                       # ITB inst misses
system.cpu.dtb.stage2_mmu.stage2_tlb.readHits            0                       # DTB read hits
system.cpu.dtb.stage2_mmu.stage2_tlb.readMisses            0                       # DTB read misses
system.cpu.dtb.stage2_mmu.stage2_tlb.writeHits            0                       # DTB write hits
system.cpu.dtb.stage2_mmu.stage2_tlb.writeMisses            0                       # DTB write misses
system.cpu.dtb.stage2_mmu.stage2_tlb.inserts            0                       # Number of times an entry is inserted into the TLB
system.cpu.dtb.stage2_mmu.stage2_tlb.flushTlb            0                       # Number of times complete TLB was flushed
system.cpu.dtb.stage2_mmu.stage2_tlb.flushTlbMva            0                       # Number of times TLB was flushed by MVA
system.cpu.dtb.stage2_mmu.stage2_tlb.flushTlbMvaAsid            0                       # Number of times TLB was flushed by MVA & ASID
system.cpu.dtb.stage2_mmu.stage2_tlb.flushTlbAsid            0                       # Number of times TLB was flushed by ASID
system.cpu.dtb.stage2_mmu.stage2_tlb.flushedEntries            0                       # Number of entries that have been flushed from TLB
system.cpu.dtb.stage2_mmu.stage2_tlb.alignFaults            0                       # Number of TLB faults due to alignment restrictions
system.cpu.dtb.stage2_mmu.stage2_tlb.prefetchFaults            0                       # Number of TLB faults due to prefetch
system.cpu.dtb.stage2_mmu.stage2_tlb.domainFaults            0                       # Number of TLB faults due to domain restrictions
system.cpu.dtb.stage2_mmu.stage2_tlb.permsFaults            0                       # Number of TLB faults due to permissions restrictions
system.cpu.dtb.stage2_mmu.stage2_tlb.readAccesses            0                       # DTB read accesses
system.cpu.dtb.stage2_mmu.stage2_tlb.writeAccesses            0                       # DTB write accesses
system.cpu.dtb.stage2_mmu.stage2_tlb.instAccesses            0                       # ITB inst accesses
system.cpu.dtb.stage2_mmu.stage2_tlb.hits            0                       # Total TLB (inst and data) hits
system.cpu.dtb.stage2_mmu.stage2_tlb.misses            0                       # Total TLB (inst and data) misses
system.cpu.dtb.stage2_mmu.stage2_tlb.accesses            0                       # Total TLB (inst and data) accesses
system.cpu.dtb.stage2_mmu.stage2_tlb.walker.walks            0                       # Table walker walks requested
system.cpu.dtb.stage2_mmu.stage2_tlb.walker.requestOrigin_Requested::Data            0                       # Table walker requests started/completed, data/inst
system.cpu.dtb.stage2_mmu.stage2_tlb.walker.requestOrigin_Requested::Inst            0                       # Table walker requests started/completed, data/inst
system.cpu.dtb.stage2_mmu.stage2_tlb.walker.requestOrigin_Requested::total            0                       # Table walker requests started/completed, data/inst
system.cpu.dtb.stage2_mmu.stage2_tlb.walker.requestOrigin_Completed::Data            0                       # Table walker requests started/completed, data/inst
system.cpu.dtb.stage2_mmu.stage2_tlb.walker.requestOrigin_Completed::Inst            0                       # Table walker requests started/completed, data/inst
system.cpu.dtb.stage2_mmu.stage2_tlb.walker.requestOrigin_Completed::total            0                       # Table walker requests started/completed, data/inst
system.cpu.dtb.stage2_mmu.stage2_tlb.walker.requestOrigin::total            0                       # Table walker requests started/completed, data/inst
system.cpu.dtb.stage2_mmu.stage2_tlb.walker.power_state.pwrStateResidencyTicks::UNDEFINED  62550583500                       # Cumulative time (in ticks) in various power states
system.cpu.dtb.walker.walks                         0                       # Table walker walks requested
system.cpu.dtb.walker.requestOrigin_Requested::Data            0                       # Table walker requests started/completed, data/inst
system.cpu.dtb.walker.requestOrigin_Requested::Inst            0                       # Table walker requests started/completed, data/inst
system.cpu.dtb.walker.requestOrigin_Requested::total            0                       # Table walker requests started/completed, data/inst
system.cpu.dtb.walker.requestOrigin_Completed::Data            0                       # Table walker requests started/completed, data/inst
system.cpu.dtb.walker.requestOrigin_Completed::Inst            0                       # Table walker requests started/completed, data/inst
system.cpu.dtb.walker.requestOrigin_Completed::total            0                       # Table walker requests started/completed, data/inst
system.cpu.dtb.walker.requestOrigin::total            0                       # Table walker requests started/completed, data/inst
system.cpu.dtb.walker.power_state.pwrStateResidencyTicks::UNDEFINED  62550583500                       # Cumulative time (in ticks) in various power states
system.cpu.fetch2.intInstructions            49060501                       # Number of integer instructions successfully decoded
system.cpu.fetch2.fpInstructions                    0                       # Number of floating point instructions successfully decoded
system.cpu.fetch2.vecInstructions                   0                       # Number of SIMD instructions successfully decoded
system.cpu.fetch2.loadInstructions           17106408                       # Number of memory load instructions successfully decoded
system.cpu.fetch2.storeInstructions           9763865                       # Number of memory store instructions successfully decoded
system.cpu.fetch2.amoInstructions                   0                       # Number of memory atomic instructions successfully decoded
system.cpu.icache.demand_hits::.cpu.inst     27581807                       # number of demand (read+write) hits
system.cpu.icache.demand_hits::total         27581807                       # number of demand (read+write) hits
system.cpu.icache.overall_hits::.cpu.inst     27581807                       # number of overall hits
system.cpu.icache.overall_hits::total        27581807                       # number of overall hits
system.cpu.icache.demand_misses::.cpu.inst       535123                       # number of demand (read+write) misses
system.cpu.icache.demand_misses::total         535123                       # number of demand (read+write) misses
system.cpu.icache.overall_misses::.cpu.inst       535123                       # number of overall misses
system.cpu.icache.overall_misses::total        535123                       # number of overall misses
system.cpu.icache.demand_miss_latency::.cpu.inst   6991245500                       # number of demand (read+write) miss cycles
system.cpu.icache.demand_miss_latency::total   6991245500                       # number of demand (read+write) miss cycles
system.cpu.icache.overall_miss_latency::.cpu.inst   6991245500                       # number of overall miss cycles
system.cpu.icache.overall_miss_latency::total   6991245500                       # number of overall miss cycles
system.cpu.icache.demand_accesses::.cpu.inst     28116930                       # number of demand (read+write) accesses
system.cpu.icache.demand_accesses::total     28116930                       # number of demand (read+write) accesses
system.cpu.icache.overall_accesses::.cpu.inst     28116930                       # number of overall (read+write) accesses
system.cpu.icache.overall_accesses::total     28116930                       # number of overall (read+write) accesses
system.cpu.icache.demand_miss_rate::.cpu.inst     0.019032                       # miss rate for demand accesses
system.cpu.icache.demand_miss_rate::total     0.019032                       # miss rate for demand accesses
system.cpu.icache.overall_miss_rate::.cpu.inst     0.019032                       # miss rate for overall accesses
system.cpu.icache.overall_miss_rate::total     0.019032                       # miss rate for overall accesses
system.cpu.icache.demand_avg_miss_latency::.cpu.inst 13064.744928                       # average overall miss latency
system.cpu.icache.demand_avg_miss_latency::total 13064.744928                       # average overall miss latency
system.cpu.icache.overall_avg_miss_latency::.cpu.inst 13064.744928                       # average overall miss latency
system.cpu.icache.overall_avg_miss_latency::total 13064.744928                       # average overall miss latency
system.cpu.icache.blocked_cycles::no_mshrs            0                       # number of cycles access was blocked
system.cpu.icache.blocked_cycles::no_targets            0                       # number of cycles access was blocked
system.cpu.icache.blocked::no_mshrs                 0                       # number of cycles access was blocked
system.cpu.icache.blocked::no_targets               0                       # number of cycles access was blocked
system.cpu.icache.avg_blocked_cycles::no_mshrs          nan                       # average number of cycles each access was blocked
system.cpu.icache.avg_blocked_cycles::no_targets          nan                       # average number of cycles each access was blocked
system.cpu.icache.writebacks::.writebacks       534721                       # number of writebacks
system.cpu.icache.writebacks::total            534721                       # number of writebacks
system.cpu.icache.demand_mshr_misses::.cpu.inst       535123                       # number of demand (read+write) MSHR misses
system.cpu.icache.demand_mshr_misses::total       535123                       # number of demand (read+write) MSHR misses
system.cpu.icache.overall_mshr_misses::.cpu.inst       535123                       # number of overall MSHR misses
system.cpu.icache.overall_mshr_misses::total       535123                       # number of overall MSHR misses
system.cpu.icache.demand_mshr_miss_latency::.cpu.inst   6456122500                       # number of demand (read+write) MSHR miss cycles
system.cpu.icache.demand_mshr_miss_latency::total   6456122500                       # number of demand (read+write) MSHR miss cycles
system.cpu.icache.overall_mshr_miss_latency::.cpu.inst   6456122500                       # number of overall MSHR miss cycles
system.cpu.icache.overall_mshr_miss_latency::total   6456122500                       # number of overall MSHR miss cycles
system.cpu.icache.demand_mshr_miss_rate::.cpu.inst     0.019032                       # mshr miss rate for demand accesses
system.cpu.icache.demand_mshr_miss_rate::total     0.019032                       # mshr miss rate for demand accesses
system.cpu.icache.overall_mshr_miss_rate::.cpu.inst     0.019032                       # mshr miss rate for overall accesses
system.cpu.icache.overall_mshr_miss_rate::total     0.019032                       # mshr miss rate for overall accesses
system.cpu.icache.demand_avg_mshr_miss_latency::.cpu.inst 12064.744928                       # average overall mshr miss latency
system.cpu.icache.demand_avg_mshr_miss_latency::total 12064.744928                       # average overall mshr miss latency
system.cpu.icache.overall_avg_mshr_miss_latency::.cpu.inst 12064.744928                       # average overall mshr miss latency
system.cpu.icache.overall_avg_mshr_miss_latency::total 12064.744928                       # average overall mshr miss latency
system.cpu.icache.replacements                 534721                       # number of replacements
system.cpu.icache.ReadReq_hits::.cpu.inst     27581807                       # number of ReadReq hits
system.cpu.icache.ReadReq_hits::total        27581807                       # number of ReadReq hits
system.cpu.icache.ReadReq_misses::.cpu.inst       535123                       # number of ReadReq misses
system.cpu.icache.ReadReq_misses::total        535123                       # number of ReadReq misses
system.cpu.icache.ReadReq_miss_latency::.cpu.inst   6991245500                       # number of ReadReq miss cycles
system.cpu.icache.ReadReq_miss_latency::total   6991245500                       # number of ReadReq miss cycles
system.cpu.icache.ReadReq_accesses::.cpu.inst     28116930                       # number of ReadReq accesses(hits+misses)
system.cpu.icache.ReadReq_accesses::total     28116930                       # number of ReadReq accesses(hits+misses)
system.cpu.icache.ReadReq_miss_rate::.cpu.inst     0.019032                       # miss rate for ReadReq accesses
system.cpu.icache.ReadReq_miss_rate::total     0.019032                       # miss rate for ReadReq accesses
system.cpu.icache.ReadReq_avg_miss_latency::.cpu.inst 13064.744928                       # average ReadReq miss latency
system.cpu.icache.ReadReq_avg_miss_latency::total 13064.744928                       # average ReadReq miss latency
system.cpu.icache.ReadReq_mshr_misses::.cpu.inst       535123                       # number of ReadReq MSHR misses
system.cpu.icache.ReadReq_mshr_misses::total       535123                       # number of ReadReq MSHR misses
system.cpu.icache.ReadReq_mshr_miss_latency::.cpu.inst   6456122500                       # number of ReadReq MSHR miss cycles
system.cpu.icache.ReadReq_mshr_miss_latency::total   6456122500                       # number of ReadReq MSHR miss cycles
system.cpu.icache.ReadReq_mshr_miss_rate::.cpu.inst     0.019032                       # mshr miss rate for ReadReq accesses
system.cpu.icache.ReadReq_mshr_miss_rate::total     0.019032                       # mshr miss rate for ReadReq accesses
system.cpu.icache.ReadReq_avg_mshr_miss_latency::.cpu.inst 12064.744928                       # average ReadReq mshr miss latency
system.cpu.icache.ReadReq_avg_mshr_miss_latency::total 12064.744928                       # average ReadReq mshr miss latency
system.cpu.icache.power_state.pwrStateResidencyTicks::UNDEFINED  62550583500                       # Cumulative time (in ticks) in various power states
system.cpu.icache.tags.tagsinuse           401.786058                       # Cycle average of tags in use
system.cpu.icache.tags.total_refs            28116930                       # Total number of references to valid blocks.
system.cpu.icache.tags.sampled_refs            535123                       # Sample count of references to valid blocks.
system.cpu.icache.tags.avg_refs             52.542929                       # Average number of references to valid blocks.
system.cpu.icache.tags.warmup_cycle             87500                       # Cycle when the warmup percentage was hit.
system.cpu.icache.tags.occ_blocks::.cpu.inst   401.786058                       # Average occupied blocks per requestor
system.cpu.icache.tags.occ_percent::.cpu.inst     0.784738                       # Average percentage of cache occupancy
system.cpu.icache.tags.occ_percent::total     0.784738                       # Average percentage of cache occupancy
system.cpu.icache.tags.occ_task_id_blocks::1024          402                       # Occupied blocks per task id
system.cpu.icache.tags.age_task_id_blocks_1024::0            8                       # Occupied blocks per task id
system.cpu.icache.tags.age_task_id_blocks_1024::2            3                       # Occupied blocks per task id
system.cpu.icache.tags.age_task_id_blocks_1024::4          391                       # Occupied blocks per task id
system.cpu.icache.tags.occ_task_id_percent::1024     0.785156                       # Percentage of cache occupancy per task id
system.cpu.icache.tags.tag_accesses          56768983                       # Number of tag accesses
system.cpu.icache.tags.data_accesses         56768983                       # Number of data accesses
system.cpu.icache.tags.power_state.pwrStateResidencyTicks::UNDEFINED  62550583500                       # Cumulative time (in ticks) in various power states
system.cpu.itb.instHits                             0                       # ITB inst hits
system.cpu.itb.instMisses                           0                       # ITB inst misses
system.cpu.itb.readHits                             0                       # DTB read hits
system.cpu.itb.readMisses                           0                       # DTB read misses
system.cpu.itb.writeHits                            0                       # DTB write hits
system.cpu.itb.writeMisses                          0                       # DTB write misses
system.cpu.itb.inserts                              0                       # Number of times an entry is inserted into the TLB
system.cpu.itb.flushTlb                             0                       # Number of times complete TLB was flushed
system.cpu.itb.flushTlbMva                          0                       # Number of times TLB was flushed by MVA
system.cpu.itb.flushTlbMvaAsid                      0                       # Number of times TLB was flushed by MVA & ASID
system.cpu.itb.flushTlbAsid                         0                       # Number of times TLB was flushed by ASID
system.cpu.itb.flushedEntries                       0                       # Number of entries that have been flushed from TLB
system.cpu.itb.alignFaults                          0                       # Number of TLB faults due to alignment restrictions
system.cpu.itb.prefetchFaults                       0                       # Number of TLB faults due to prefetch
system.cpu.itb.domainFaults                         0                       # Number of TLB faults due to domain restrictions
system.cpu.itb.permsFaults                          0                       # Number of TLB faults due to permissions restrictions
system.cpu.itb.readAccesses                         0                       # DTB read accesses
system.cpu.itb.writeAccesses                        0                       # DTB write accesses
system.cpu.itb.instAccesses                         0                       # ITB inst accesses
system.cpu.itb.hits                                 0                       # Total TLB (inst and data) hits
system.cpu.itb.misses                               0                       # Total TLB (inst and data) misses
system.cpu.itb.accesses                             0                       # Total TLB (inst and data) accesses
system.cpu.itb.stage2_mmu.stage2_tlb.instHits            0                       # ITB inst hits
system.cpu.itb.stage2_mmu.stage2_tlb.instMisses            0                       # ITB inst misses
system.cpu.itb.stage2_mmu.stage2_tlb.readHits            0                       # DTB read hits
system.cpu.itb.stage2_mmu.stage2_tlb.readMisses            0                       # DTB read misses
system.cpu.itb.stage2_mmu.stage2_tlb.writeHits            0                       # DTB write hits
system.cpu.itb.stage2_mmu.stage2_tlb.writeMisses            0                       # DTB write misses
system.cpu.itb.stage2_mmu.stage2_tlb.inserts            0                       # Number of times an entry is inserted into the TLB
system.cpu.itb.stage2_mmu.stage2_tlb.flushTlb            0                       # Number of times complete TLB was flushed
system.cpu.itb.stage2_mmu.stage2_tlb.flushTlbMva            0                       # Number of times TLB was flushed by MVA
system.cpu.itb.stage2_mmu.stage2_tlb.flushTlbMvaAsid            0                       # Number of times TLB was flushed by MVA & ASID
system.cpu.itb.stage2_mmu.stage2_tlb.flushTlbAsid            0                       # Number of times TLB was flushed by ASID
system.cpu.itb.stage2_mmu.stage2_tlb.flushedEntries            0                       # Number of entries that have been flushed from TLB
system.cpu.itb.stage2_mmu.stage2_tlb.alignFaults            0                       # Number of TLB faults due to alignment restrictions
system.cpu.itb.stage2_mmu.stage2_tlb.prefetchFaults            0                       # Number of TLB faults due to prefetch
system.cpu.itb.stage2_mmu.stage2_tlb.domainFaults            0                       # Number of TLB faults due to domain restrictions
system.cpu.itb.stage2_mmu.stage2_tlb.permsFaults            0                       # Number of TLB faults due to permissions restrictions
system.cpu.itb.stage2_mmu.stage2_tlb.readAccesses            0                       # DTB read accesses
system.cpu.itb.stage2_mmu.stage2_tlb.writeAccesses            0                       # DTB write accesses
system.cpu.itb.stage2_mmu.stage2_tlb.instAccesses            0                       # ITB inst accesses
system.cpu.itb.stage2_mmu.stage2_tlb.hits            0                       # Total TLB (inst and data) hits
system.cpu.itb.stage2_mmu.stage2_tlb.misses            0                       # Total TLB (inst and data) misses
system.cpu.itb.stage2_mmu.stage2_tlb.accesses            0                       # Total TLB (inst and data) accesses
system.cpu.itb.stage2_mmu.stage2_tlb.walker.walks            0                       # Table walker walks requested
system.cpu.itb.stage2_mmu.stage2_tlb.walker.requestOrigin_Requested::Data            0                       # Table walker requests started/completed, data/inst
system.cpu.itb.stage2_mmu.stage2_tlb.walker.requestOrigin_Requested::Inst            0                       # Table walker requests started/completed, data/inst
system.cpu.itb.stage2_mmu.stage2_tlb.walker.requestOrigin_Requested::total            0                       # Table walker requests started/completed, data/inst
system.cpu.itb.stage2_mmu.stage2_tlb.walker.requestOrigin_Completed::Data            0                       # Table walker requests started/completed, data/inst
system.cpu.itb.stage2_mmu.stage2_tlb.walker.requestOrigin_Completed::Inst            0                       # Table walker requests started/completed, data/inst
system.cpu.itb.stage2_mmu.stage2_tlb.walker.requestOrigin_Completed::total            0                       # Table walker requests started/completed, data/inst
system.cpu.itb.stage2_mmu.stage2_tlb.walker.requestOrigin::total            0                       # Table walker requests started/completed, data/inst
system.cpu.itb.stage2_mmu.stage2_tlb.walker.power_state.pwrStateResidencyTicks::UNDEFINED  62550583500                       # Cumulative time (in ticks) in various power states
system.cpu.itb.walker.walks                         0                       # Table walker walks requested
system.cpu.itb.walker.requestOrigin_Requested::Data            0                       # Table walker requests started/completed, data/inst
system.cpu.itb.walker.requestOrigin_Requested::Inst            0                       # Table walker requests started/completed, data/inst
system.cpu.itb.walker.requestOrigin_Requested::total            0                       # Table walker requests started/completed, data/inst
system.cpu.itb.walker.requestOrigin_Completed::Data            0                       # Table walker requests started/completed, data/inst
system.cpu.itb.walker.requestOrigin_Completed::Inst            0                       # Table walker requests started/completed, data/inst
system.cpu.itb.walker.requestOrigin_Completed::total            0                       # Table walker requests started/completed, data/inst
system.cpu.itb.walker.requestOrigin::total            0                       # Table walker requests started/completed, data/inst
system.cpu.itb.walker.power_state.pwrStateResidencyTicks::UNDEFINED  62550583500                       # Cumulative time (in ticks) in various power states
system.cpu.power_state.pwrStateResidencyTicks::ON  62550583500                       # Cumulative time (in ticks) in various power states
system.cpu.thread0.numInsts                 100000001                       # Number of Instructions committed
system.cpu.thread0.numOps                   109431277                       # Number of Ops committed
system.cpu.thread0.numMemRefs                       0                       # Number of Memory References
system.cpu_clk_domain.clock                       500                       # Clock period in ticks
system.cpu_voltage_domain.voltage                   1                       # Voltage in Volts
system.l2.demand_hits::.cpu.inst               534599                       # number of demand (read+write) hits
system.l2.demand_hits::.cpu.data                14671                       # number of demand (read+write) hits
system.l2.demand_hits::total                   549270                       # number of demand (read+write) hits
system.l2.overall_hits::.cpu.inst              534599                       # number of overall hits
system.l2.overall_hits::.cpu.data               14671                       # number of overall hits
system.l2.overall_hits::total                  549270                       # number of overall hits
system.l2.demand_misses::.cpu.inst                524                       # number of demand (read+write) misses
system.l2.demand_misses::.cpu.data              39364                       # number of demand (read+write) misses
system.l2.demand_misses::total                  39888                       # number of demand (read+write) misses
system.l2.overall_misses::.cpu.inst               524                       # number of overall misses
system.l2.overall_misses::.cpu.data             39364                       # number of overall misses
system.l2.overall_misses::total                 39888                       # number of overall misses
system.l2.demand_miss_latency::.cpu.inst     40139000                       # number of demand (read+write) miss cycles
system.l2.demand_miss_latency::.cpu.data   3043473000                       # number of demand (read+write) miss cycles
system.l2.demand_miss_latency::total       3083612000                       # number of demand (read+write) miss cycles
system.l2.overall_miss_latency::.cpu.inst     40139000                       # number of overall miss cycles
system.l2.overall_miss_latency::.cpu.data   3043473000                       # number of overall miss cycles
system.l2.overall_miss_latency::total      3083612000                       # number of overall miss cycles
system.l2.demand_accesses::.cpu.inst           535123                       # number of demand (read+write) accesses
system.l2.demand_accesses::.cpu.data            54035                       # number of demand (read+write) accesses
system.l2.demand_accesses::total               589158                       # number of demand (read+write) accesses
system.l2.overall_accesses::.cpu.inst          535123                       # number of overall (read+write) accesses
system.l2.overall_accesses::.cpu.data           54035                       # number of overall (read+write) accesses
system.l2.overall_accesses::total              589158                       # number of overall (read+write) accesses
system.l2.demand_miss_rate::.cpu.inst        0.000979                       # miss rate for demand accesses
system.l2.demand_miss_rate::.cpu.data        0.728491                       # miss rate for demand accesses
system.l2.demand_miss_rate::total            0.067703                       # miss rate for demand accesses
system.l2.overall_miss_rate::.cpu.inst       0.000979                       # miss rate for overall accesses
system.l2.overall_miss_rate::.cpu.data       0.728491                       # miss rate for overall accesses
system.l2.overall_miss_rate::total           0.067703                       # miss rate for overall accesses
system.l2.demand_avg_miss_latency::.cpu.inst 76601.145038                       # average overall miss latency
system.l2.demand_avg_miss_latency::.cpu.data 77316.151814                       # average overall miss latency
system.l2.demand_avg_miss_latency::total 77306.758925                       # average overall miss latency
system.l2.overall_avg_miss_latency::.cpu.inst 76601.145038                       # average overall miss latency
system.l2.overall_avg_miss_latency::.cpu.data 77316.151814                       # average overall miss latency
system.l2.overall_avg_miss_latency::total 77306.758925                       # average overall miss latency
system.l2.blocked_cycles::no_mshrs                  0                       # number of cycles access was blocked
system.l2.blocked_cycles::no_targets                0                       # number of cycles access was blocked
system.l2.blocked::no_mshrs                         0                       # number of cycles access was blocked
system.l2.blocked::no_targets                       0                       # number of cycles access was blocked
system.l2.avg_blocked_cycles::no_mshrs            nan                       # average number of cycles each access was blocked
system.l2.avg_blocked_cycles::no_targets          nan                       # average number of cycles each access was blocked
system.l2.writebacks::.writebacks                6531                       # number of writebacks
system.l2.writebacks::total                      6531                       # number of writebacks
system.l2.demand_mshr_hits::.cpu.inst               1                       # number of demand (read+write) MSHR hits
system.l2.demand_mshr_hits::.cpu.data               5                       # number of demand (read+write) MSHR hits
system.l2.demand_mshr_hits::total                   6                       # number of demand (read+write) MSHR hits
system.l2.overall_mshr_hits::.cpu.inst              1                       # number of overall MSHR hits
system.l2.overall_mshr_hits::.cpu.data              5                       # number of overall MSHR hits
system.l2.overall_mshr_hits::total                  6                       # number of overall MSHR hits
system.l2.demand_mshr_misses::.cpu.inst           523                       # number of demand (read+write) MSHR misses
system.l2.demand_mshr_misses::.cpu.data         39359                       # number of demand (read+write) MSHR misses
system.l2.demand_mshr_misses::total             39882                       # number of demand (read+write) MSHR misses
system.l2.overall_mshr_misses::.cpu.inst          523                       # number of overall MSHR misses
system.l2.overall_mshr_misses::.cpu.data        39359                       # number of overall MSHR misses
system.l2.overall_mshr_misses::total            39882                       # number of overall MSHR misses
system.l2.demand_mshr_miss_latency::.cpu.inst     34844500                       # number of demand (read+write) MSHR miss cycles
system.l2.demand_mshr_miss_latency::.cpu.data   2649557500                       # number of demand (read+write) MSHR miss cycles
system.l2.demand_mshr_miss_latency::total   2684402000                       # number of demand (read+write) MSHR miss cycles
system.l2.overall_mshr_miss_latency::.cpu.inst     34844500                       # number of overall MSHR miss cycles
system.l2.overall_mshr_miss_latency::.cpu.data   2649557500                       # number of overall MSHR miss cycles
system.l2.overall_mshr_miss_latency::total   2684402000                       # number of overall MSHR miss cycles
system.l2.demand_mshr_miss_rate::.cpu.inst     0.000977                       # mshr miss rate for demand accesses
system.l2.demand_mshr_miss_rate::.cpu.data     0.728398                       # mshr miss rate for demand accesses
system.l2.demand_mshr_miss_rate::total       0.067693                       # mshr miss rate for demand accesses
system.l2.overall_mshr_miss_rate::.cpu.inst     0.000977                       # mshr miss rate for overall accesses
system.l2.overall_mshr_miss_rate::.cpu.data     0.728398                       # mshr miss rate for overall accesses
system.l2.overall_mshr_miss_rate::total      0.067693                       # mshr miss rate for overall accesses
system.l2.demand_avg_mshr_miss_latency::.cpu.inst 66624.282983                       # average overall mshr miss latency
system.l2.demand_avg_mshr_miss_latency::.cpu.data 67317.703702                       # average overall mshr miss latency
system.l2.demand_avg_mshr_miss_latency::total 67308.610401                       # average overall mshr miss latency
system.l2.overall_avg_mshr_miss_latency::.cpu.inst 66624.282983                       # average overall mshr miss latency
system.l2.overall_avg_mshr_miss_latency::.cpu.data 67317.703702                       # average overall mshr miss latency
system.l2.overall_avg_mshr_miss_latency::total 67308.610401                       # average overall mshr miss latency
system.l2.replacements                           7119                       # number of replacements
system.l2.WritebackDirty_hits::.writebacks        49913                       # number of WritebackDirty hits
system.l2.WritebackDirty_hits::total            49913                       # number of WritebackDirty hits
system.l2.WritebackDirty_accesses::.writebacks        49913                       # number of WritebackDirty accesses(hits+misses)
system.l2.WritebackDirty_accesses::total        49913                       # number of WritebackDirty accesses(hits+misses)
system.l2.WritebackClean_hits::.writebacks       534714                       # number of WritebackClean hits
system.l2.WritebackClean_hits::total           534714                       # number of WritebackClean hits
system.l2.WritebackClean_accesses::.writebacks       534714                       # number of WritebackClean accesses(hits+misses)
system.l2.WritebackClean_accesses::total       534714                       # number of WritebackClean accesses(hits+misses)
system.l2.CleanEvict_mshr_misses::.writebacks            1                       # number of CleanEvict MSHR misses
system.l2.CleanEvict_mshr_misses::total             1                       # number of CleanEvict MSHR misses
system.l2.CleanEvict_mshr_miss_rate::.writebacks          inf                       # mshr miss rate for CleanEvict accesses
system.l2.CleanEvict_mshr_miss_rate::total          inf                       # mshr miss rate for CleanEvict accesses
system.l2.ReadExReq_hits::.cpu.data                 9                       # number of ReadExReq hits
system.l2.ReadExReq_hits::total                     9                       # number of ReadExReq hits
system.l2.ReadExReq_misses::.cpu.data           38810                       # number of ReadExReq misses
system.l2.ReadExReq_misses::total               38810                       # number of ReadExReq misses
system.l2.ReadExReq_miss_latency::.cpu.data   2994672500                       # number of ReadExReq miss cycles
system.l2.ReadExReq_miss_latency::total    2994672500                       # number of ReadExReq miss cycles
system.l2.ReadExReq_accesses::.cpu.data         38819                       # number of ReadExReq accesses(hits+misses)
system.l2.ReadExReq_accesses::total             38819                       # number of ReadExReq accesses(hits+misses)
system.l2.ReadExReq_miss_rate::.cpu.data     0.999768                       # miss rate for ReadExReq accesses
system.l2.ReadExReq_miss_rate::total         0.999768                       # miss rate for ReadExReq accesses
system.l2.ReadExReq_avg_miss_latency::.cpu.data 77162.393713                       # average ReadExReq miss latency
system.l2.ReadExReq_avg_miss_latency::total 77162.393713                       # average ReadExReq miss latency
system.l2.ReadExReq_mshr_misses::.cpu.data        38810                       # number of ReadExReq MSHR misses
system.l2.ReadExReq_mshr_misses::total          38810                       # number of ReadExReq MSHR misses
system.l2.ReadExReq_mshr_miss_latency::.cpu.data   2606572500                       # number of ReadExReq MSHR miss cycles
system.l2.ReadExReq_mshr_miss_latency::total   2606572500                       # number of ReadExReq MSHR miss cycles
system.l2.ReadExReq_mshr_miss_rate::.cpu.data     0.999768                       # mshr miss rate for ReadExReq accesses
system.l2.ReadExReq_mshr_miss_rate::total     0.999768                       # mshr miss rate for ReadExReq accesses
system.l2.ReadExReq_avg_mshr_miss_latency::.cpu.data 67162.393713                       # average ReadExReq mshr miss latency
system.l2.ReadExReq_avg_mshr_miss_latency::total 67162.393713                       # average ReadExReq mshr miss latency
system.l2.ReadCleanReq_hits::.cpu.inst         534599                       # number of ReadCleanReq hits
system.l2.ReadCleanReq_hits::total             534599                       # number of ReadCleanReq hits
system.l2.ReadCleanReq_misses::.cpu.inst          524                       # number of ReadCleanReq misses
system.l2.ReadCleanReq_misses::total              524                       # number of ReadCleanReq misses
system.l2.ReadCleanReq_miss_latency::.cpu.inst     40139000                       # number of ReadCleanReq miss cycles
system.l2.ReadCleanReq_miss_latency::total     40139000                       # number of ReadCleanReq miss cycles
system.l2.ReadCleanReq_accesses::.cpu.inst       535123                       # number of ReadCleanReq accesses(hits+misses)
system.l2.ReadCleanReq_accesses::total         535123                       # number of ReadCleanReq accesses(hits+misses)
system.l2.ReadCleanReq_miss_rate::.cpu.inst     0.000979                       # miss rate for ReadCleanReq accesses
system.l2.ReadCleanReq_miss_rate::total      0.000979                       # miss rate for ReadCleanReq accesses
system.l2.ReadCleanReq_avg_miss_latency::.cpu.inst 76601.145038                       # average ReadCleanReq miss latency
system.l2.ReadCleanReq_avg_miss_latency::total 76601.145038                       # average ReadCleanReq miss latency
system.l2.ReadCleanReq_mshr_hits::.cpu.inst            1                       # number of ReadCleanReq MSHR hits
system.l2.ReadCleanReq_mshr_hits::total             1                       # number of ReadCleanReq MSHR hits
system.l2.ReadCleanReq_mshr_misses::.cpu.inst          523                       # number of ReadCleanReq MSHR misses
system.l2.ReadCleanReq_mshr_misses::total          523                       # number of ReadCleanReq MSHR misses
system.l2.ReadCleanReq_mshr_miss_latency::.cpu.inst     34844500                       # number of ReadCleanReq MSHR miss cycles
system.l2.ReadCleanReq_mshr_miss_latency::total     34844500                       # number of ReadCleanReq MSHR miss cycles
system.l2.ReadCleanReq_mshr_miss_rate::.cpu.inst     0.000977                       # mshr miss rate for ReadCleanReq accesses
system.l2.ReadCleanReq_mshr_miss_rate::total     0.000977                       # mshr miss rate for ReadCleanReq accesses
system.l2.ReadCleanReq_avg_mshr_miss_latency::.cpu.inst 66624.282983                       # average ReadCleanReq mshr miss latency
system.l2.ReadCleanReq_avg_mshr_miss_latency::total 66624.282983                       # average ReadCleanReq mshr miss latency
system.l2.ReadSharedReq_hits::.cpu.data         14662                       # number of ReadSharedReq hits
system.l2.ReadSharedReq_hits::total             14662                       # number of ReadSharedReq hits
system.l2.ReadSharedReq_misses::.cpu.data          554                       # number of ReadSharedReq misses
system.l2.ReadSharedReq_misses::total             554                       # number of ReadSharedReq misses
system.l2.ReadSharedReq_miss_latency::.cpu.data     48800500                       # number of ReadSharedReq miss cycles
system.l2.ReadSharedReq_miss_latency::total     48800500                       # number of ReadSharedReq miss cycles
system.l2.ReadSharedReq_accesses::.cpu.data        15216                       # number of ReadSharedReq accesses(hits+misses)
system.l2.ReadSharedReq_accesses::total         15216                       # number of ReadSharedReq accesses(hits+misses)
system.l2.ReadSharedReq_miss_rate::.cpu.data     0.036409                       # miss rate for ReadSharedReq accesses
system.l2.ReadSharedReq_miss_rate::total     0.036409                       # miss rate for ReadSharedReq accesses
system.l2.ReadSharedReq_avg_miss_latency::.cpu.data 88087.545126                       # average ReadSharedReq miss latency
system.l2.ReadSharedReq_avg_miss_latency::total 88087.545126                       # average ReadSharedReq miss latency
system.l2.ReadSharedReq_mshr_hits::.cpu.data            5                       # number of ReadSharedReq MSHR hits
system.l2.ReadSharedReq_mshr_hits::total            5                       # number of ReadSharedReq MSHR hits
system.l2.ReadSharedReq_mshr_misses::.cpu.data          549                       # number of ReadSharedReq MSHR misses
system.l2.ReadSharedReq_mshr_misses::total          549                       # number of ReadSharedReq MSHR misses
system.l2.ReadSharedReq_mshr_miss_latency::.cpu.data     42985000                       # number of ReadSharedReq MSHR miss cycles
system.l2.ReadSharedReq_mshr_miss_latency::total     42985000                       # number of ReadSharedReq MSHR miss cycles
system.l2.ReadSharedReq_mshr_miss_rate::.cpu.data     0.036080                       # mshr miss rate for ReadSharedReq accesses
system.l2.ReadSharedReq_mshr_miss_rate::total     0.036080                       # mshr miss rate for ReadSharedReq accesses
system.l2.ReadSharedReq_avg_mshr_miss_latency::.cpu.data 78296.903461                       # average ReadSharedReq mshr miss latency
system.l2.ReadSharedReq_avg_mshr_miss_latency::total 78296.903461                       # average ReadSharedReq mshr miss latency
system.l2.power_state.pwrStateResidencyTicks::UNDEFINED  62550583500                       # Cumulative time (in ticks) in various power states
system.l2.tags.tagsinuse                 26196.626145                       # Cycle average of tags in use
system.l2.tags.total_refs                     1176856                       # Total number of references to valid blocks.
system.l2.tags.sampled_refs                     39887                       # Sample count of references to valid blocks.
system.l2.tags.avg_refs                     29.504751                       # Average number of references to valid blocks.
system.l2.tags.warmup_cycle                     77000                       # Cycle when the warmup percentage was hit.
system.l2.tags.occ_blocks::.writebacks       0.991886                       # Average occupied blocks per requestor
system.l2.tags.occ_blocks::.cpu.inst       272.181136                       # Average occupied blocks per requestor
system.l2.tags.occ_blocks::.cpu.data     25923.453123                       # Average occupied blocks per requestor
system.l2.tags.occ_percent::.writebacks      0.000030                       # Average percentage of cache occupancy
system.l2.tags.occ_percent::.cpu.inst        0.008306                       # Average percentage of cache occupancy
system.l2.tags.occ_percent::.cpu.data        0.791121                       # Average percentage of cache occupancy
system.l2.tags.occ_percent::total            0.799458                       # Average percentage of cache occupancy
system.l2.tags.occ_task_id_blocks::1024         32768                       # Occupied blocks per task id
system.l2.tags.age_task_id_blocks_1024::0            3                       # Occupied blocks per task id
system.l2.tags.age_task_id_blocks_1024::1           31                       # Occupied blocks per task id
system.l2.tags.age_task_id_blocks_1024::2          385                       # Occupied blocks per task id
system.l2.tags.age_task_id_blocks_1024::3         3423                       # Occupied blocks per task id
system.l2.tags.age_task_id_blocks_1024::4        28926                       # Occupied blocks per task id
system.l2.tags.occ_task_id_percent::1024            1                       # Percentage of cache occupancy per task id
system.l2.tags.tag_accesses                   4747339                       # Number of tag accesses
system.l2.tags.data_accesses                  4747339                       # Number of data accesses
system.l2.tags.power_state.pwrStateResidencyTicks::UNDEFINED  62550583500                       # Cumulative time (in ticks) in various power states
system.mem_ctrls.avgPriority_.writebacks::samples      6531.00                       # Average QoS priority value for accepted requests
system.mem_ctrls.avgPriority_.cpu.inst::samples       523.00                       # Average QoS priority value for accepted requests
system.mem_ctrls.avgPriority_.cpu.data::samples     39358.00                       # Average QoS priority value for accepted requests
system.mem_ctrls.priorityMinLatency      0.000000018750                       # per QoS priority minimum request to response latency (s)
system.mem_ctrls.priorityMaxLatency      0.033505808500                       # per QoS priority maximum request to response latency (s)
system.mem_ctrls.numReadWriteTurnArounds          361                       # Number of turnarounds from READ to WRITE
system.mem_ctrls.numWriteReadTurnArounds          361                       # Number of turnarounds from WRITE to READ
system.mem_ctrls.numStayReadState              102320                       # Number of times bus staying in READ state
system.mem_ctrls.numStayWriteState               6159                       # Number of times bus staying in WRITE state
system.mem_ctrls.readReqs                       39882                       # Number of read requests accepted
system.mem_ctrls.writeReqs                       6531                       # Number of write requests accepted
system.mem_ctrls.readBursts                     39882                       # Number of controller read bursts, including those serviced by the write queue
system.mem_ctrls.writeBursts                     6531                       # Number of controller write bursts, including those merged in the write queue
system.mem_ctrls.servicedByWrQ                      1                       # Number of controller read bursts serviced by the write queue
system.mem_ctrls.mergedWrBursts                     0                       # Number of controller write bursts merged with an existing one
system.mem_ctrls.neitherReadNorWriteReqs            0                       # Number of requests that are neither read nor write
system.mem_ctrls.avgRdQLen                       1.00                       # Average read queue length when enqueuing
system.mem_ctrls.avgWrQLen                      12.64                       # Average write queue length when enqueuing
system.mem_ctrls.numRdRetry                         0                       # Number of times read queue was full causing retry
system.mem_ctrls.numWrRetry                         0                       # Number of times write queue was full causing retry
system.mem_ctrls.readPktSize::0                     0                       # Read request sizes (log2)
system.mem_ctrls.readPktSize::1                     0                       # Read request sizes (log2)
system.mem_ctrls.readPktSize::2                     0                       # Read request sizes (log2)
system.mem_ctrls.readPktSize::3                     0                       # Read request sizes (log2)
system.mem_ctrls.readPktSize::4                     0                       # Read request sizes (log2)
system.mem_ctrls.readPktSize::5                     0                       # Read request sizes (log2)
system.mem_ctrls.readPktSize::6                 39882                       # Read request sizes (log2)
system.mem_ctrls.writePktSize::0                    0                       # Write request sizes (log2)
system.mem_ctrls.writePktSize::1                    0                       # Write request sizes (log2)
system.mem_ctrls.writePktSize::2                    0                       # Write request sizes (log2)
system.mem_ctrls.writePktSize::3                    0                       # Write request sizes (log2)
system.mem_ctrls.writePktSize::4                    0                       # Write request sizes (log2)
system.mem_ctrls.writePktSize::5                    0                       # Write request sizes (log2)
system.mem_ctrls.writePktSize::6                 6531                       # Write request sizes (log2)
system.mem_ctrls.rdQLenPdf::0                   39674                       # What read queue length does an incoming req see
system.mem_ctrls.rdQLenPdf::1                     201                       # What read queue length does an incoming req see
[...]
system.mem_ctrls.dram.bw_write::.writebacks      6682336                       # Write bandwidth from this memory (bytes/s)
system.mem_ctrls.dram.bw_write::total         6682336                       # Write bandwidth from this memory (bytes/s)
system.mem_ctrls.dram.bw_total::.writebacks      6682336                       # Total bandwidth to/from this memory (bytes/s)
system.mem_ctrls.dram.bw_total::.cpu.inst       535119                       # Total bandwidth to/from this memory (bytes/s)
system.mem_ctrls.dram.bw_total::.cpu.data     40271023                       # Total bandwidth to/from this memory (bytes/s)
system.mem_ctrls.dram.bw_total::total        47488478                       # Total bandwidth to/from this memory (bytes/s)
system.mem_ctrls.dram.readBursts                39881                       # Number of DRAM read bursts
system.mem_ctrls.dram.writeBursts                6506                       # Number of DRAM write bursts
system.mem_ctrls.dram.perBankRdBursts::0         2526                       # Per bank write bursts
system.mem_ctrls.dram.perBankRdBursts::1         2494                       # Per bank write bursts
system.mem_ctrls.dram.perBankRdBursts::2         2483                       # Per bank write bursts
system.mem_ctrls.dram.perBankRdBursts::3         2596                       # Per bank write bursts
system.mem_ctrls.dram.perBankRdBursts::4         2454                       # Per bank write bursts
system.mem_ctrls.dram.perBankRdBursts::5         2390                       # Per bank write bursts
system.mem_ctrls.dram.perBankRdBursts::6         2450                       # Per bank write bursts
system.mem_ctrls.dram.perBankRdBursts::7         2463                       # Per bank write bursts
system.mem_ctrls.dram.perBankRdBursts::8         2475                       # Per bank write bursts
system.mem_ctrls.dram.perBankRdBursts::9         2507                       # Per bank write bursts
system.mem_ctrls.dram.perBankRdBursts::10         2492                       # Per bank write bursts
system.mem_ctrls.dram.perBankRdBursts::11         2515                       # Per bank write bursts
system.mem_ctrls.dram.perBankRdBursts::12         2504                       # Per bank write bursts
system.mem_ctrls.dram.perBankRdBursts::13         2488                       # Per bank write bursts
system.mem_ctrls.dram.perBankRdBursts::14         2522                       # Per bank write bursts
system.mem_ctrls.dram.perBankRdBursts::15         2522                       # Per bank write bursts
system.mem_ctrls.dram.perBankWrBursts::0          435                       # Per bank write bursts
system.mem_ctrls.dram.perBankWrBursts::1          404                       # Per bank write bursts
system.mem_ctrls.dram.perBankWrBursts::2          418                       # Per bank write bursts
system.mem_ctrls.dram.perBankWrBursts::3          467                       # Per bank write bursts
system.mem_ctrls.dram.perBankWrBursts::4          359                       # Per bank write bursts
system.mem_ctrls.dram.perBankWrBursts::5          340                       # Per bank write bursts
system.mem_ctrls.dram.perBankWrBursts::6          402                       # Per bank write bursts
system.mem_ctrls.dram.perBankWrBursts::7          394                       # Per bank write bursts
system.mem_ctrls.dram.perBankWrBursts::8          401                       # Per bank write bursts
system.mem_ctrls.dram.perBankWrBursts::9          412                       # Per bank write bursts
system.mem_ctrls.dram.perBankWrBursts::10          403                       # Per bank write bursts
system.mem_ctrls.dram.perBankWrBursts::11          403                       # Per bank write bursts
system.mem_ctrls.dram.perBankWrBursts::12          408                       # Per bank write bursts
system.mem_ctrls.dram.perBankWrBursts::13          414                       # Per bank write bursts
system.mem_ctrls.dram.perBankWrBursts::14          401                       # Per bank write bursts
system.mem_ctrls.dram.perBankWrBursts::15          445                       # Per bank write bursts
system.mem_ctrls.dram.totQLat               301734750                       # Total ticks spent queuing
system.mem_ctrls.dram.totBusLat             199405000                       # Total ticks spent in databus transfers
system.mem_ctrls.dram.totMemAccLat         1049503500                       # Total ticks spent from burst creation until serviced by the DRAM
system.mem_ctrls.dram.avgQLat                 7565.88                       # Average queueing delay per DRAM burst
system.mem_ctrls.dram.avgBusLat               5000.00                       # Average bus latency per DRAM burst
system.mem_ctrls.dram.avgMemAccLat           26315.88                       # Average memory access latency per DRAM burst
system.mem_ctrls.dram.readRowHits               29541                       # Number of row buffer hits during reads
system.mem_ctrls.dram.writeRowHits               5472                       # Number of row buffer hits during writes
system.mem_ctrls.dram.readRowHitRate            74.07                       # Row buffer hit rate for reads
system.mem_ctrls.dram.writeRowHitRate           84.11                       # Row buffer hit rate for writes
system.mem_ctrls.dram.bytesPerActivate::samples        11373                       # Bytes accessed per row activation
system.mem_ctrls.dram.bytesPerActivate::mean   261.030863                       # Bytes accessed per row activation
system.mem_ctrls.dram.bytesPerActivate::gmean   201.009069                       # Bytes accessed per row activation
system.mem_ctrls.dram.bytesPerActivate::stdev   225.518176                       # Bytes accessed per row activation
system.mem_ctrls.dram.bytesPerActivate::0-127         1297     11.40%     11.40% # Bytes accessed per row activation
system.mem_ctrls.dram.bytesPerActivate::128-255         7296     64.15%     75.56% # Bytes accessed per row activation
system.mem_ctrls.dram.bytesPerActivate::256-383          858      7.54%     83.10% # Bytes accessed per row activation
system.mem_ctrls.dram.bytesPerActivate::384-511          277      2.44%     85.54% # Bytes accessed per row activation
system.mem_ctrls.dram.bytesPerActivate::512-639          468      4.12%     89.65% # Bytes accessed per row activation
system.mem_ctrls.dram.bytesPerActivate::640-767          286      2.51%     92.17% # Bytes accessed per row activation
system.mem_ctrls.dram.bytesPerActivate::768-895          305      2.68%     94.85% # Bytes accessed per row activation
system.mem_ctrls.dram.bytesPerActivate::896-1023          380      3.34%     98.19% # Bytes accessed per row activation
system.mem_ctrls.dram.bytesPerActivate::1024-1151          206      1.81%    100.00% # Bytes accessed per row activation
system.mem_ctrls.dram.bytesPerActivate::total        11373                       # Bytes accessed per row activation
system.mem_ctrls.dram.bytesRead               2552384                       # Total number of bytes read from DRAM
system.mem_ctrls.dram.bytesWritten             416384                       # Total number of bytes written to DRAM
system.mem_ctrls.dram.avgRdBW               40.805119                       # Average DRAM read bandwidth in MiBytes/s
system.mem_ctrls.dram.avgWrBW                6.656756                       # Average DRAM write bandwidth in MiBytes/s
system.mem_ctrls.dram.peakBW                 12800.00                       # Theoretical peak bandwidth in MiByte/s
system.mem_ctrls.dram.busUtil                    0.37                       # Data bus utilization in percentage
system.mem_ctrls.dram.busUtilRead                0.32                       # Data bus utilization in percentage for reads
system.mem_ctrls.dram.busUtilWrite               0.05                       # Data bus utilization in percentage for writes
system.mem_ctrls.dram.pageHitRate               75.48                       # Row buffer hit rate, read and write combined
system.mem_ctrls.dram.power_state.pwrStateResidencyTicks::UNDEFINED  62550583500                       # Cumulative time (in ticks) in various power states
system.mem_ctrls.dram.rank0.actEnergy        41269200                       # Energy for activate commands per rank (pJ)
system.mem_ctrls.dram.rank0.preEnergy        21931305                       # Energy for precharge commands per rank (pJ)
system.mem_ctrls.dram.rank0.readEnergy      141771840                       # Energy for read commands per rank (pJ)
system.mem_ctrls.dram.rank0.writeEnergy      16803180                       # Energy for write commands per rank (pJ)
system.mem_ctrls.dram.rank0.refreshEnergy 4937403120.000001                       # Energy for refresh commands per rank (pJ)
system.mem_ctrls.dram.rank0.actBackEnergy  13343231460                       # Energy for active background per rank (pJ)
system.mem_ctrls.dram.rank0.preBackEnergy  12783018720                       # Energy for precharge background per rank (pJ)
system.mem_ctrls.dram.rank0.actPowerDownEnergy            0                       # Energy for active power-down per rank (pJ)
system.mem_ctrls.dram.rank0.prePowerDownEnergy            0                       # Energy for precharge power-down per rank (pJ)
system.mem_ctrls.dram.rank0.selfRefreshEnergy            0                       # Energy for self refresh per rank (pJ)
system.mem_ctrls.dram.rank0.totalEnergy   31285428825                       # Total energy per rank (pJ)
system.mem_ctrls.dram.rank0.averagePower   500.162062                       # Core power per rank (mW)
system.mem_ctrls.dram.rank0.totalIdleTime            0                       # Total Idle time Per DRAM Rank
system.mem_ctrls.dram.rank0.pwrStateTime::IDLE  33114344000                       # Time in different power states
system.mem_ctrls.dram.rank0.pwrStateTime::REF   2088580000                       # Time in different power states
system.mem_ctrls.dram.rank0.pwrStateTime::SREF            0                       # Time in different power states
system.mem_ctrls.dram.rank0.pwrStateTime::PRE_PDN            0                       # Time in different power states
system.mem_ctrls.dram.rank0.pwrStateTime::ACT  27347659500                       # Time in different power states
system.mem_ctrls.dram.rank0.pwrStateTime::ACT_PDN            0                       # Time in different power states
system.mem_ctrls.dram.rank1.actEnergy        39941160                       # Energy for activate commands per rank (pJ)
system.mem_ctrls.dram.rank1.preEnergy        21229230                       # Energy for precharge commands per rank (pJ)
system.mem_ctrls.dram.rank1.readEnergy      142978500                       # Energy for read commands per rank (pJ)
system.mem_ctrls.dram.rank1.writeEnergy      17158140                       # Energy for write commands per rank (pJ)
system.mem_ctrls.dram.rank1.refreshEnergy 4937403120.000001                       # Energy for refresh commands per rank (pJ)
system.mem_ctrls.dram.rank1.actBackEnergy  13131417750                       # Energy for active background per rank (pJ)
system.mem_ctrls.dram.rank1.preBackEnergy  12961388160                       # Energy for precharge background per rank (pJ)
system.mem_ctrls.dram.rank1.actPowerDownEnergy            0                       # Energy for active power-down per rank (pJ)
system.mem_ctrls.dram.rank1.prePowerDownEnergy            0                       # Energy for precharge power-down per rank (pJ)
system.mem_ctrls.dram.rank1.selfRefreshEnergy            0                       # Energy for self refresh per rank (pJ)
system.mem_ctrls.dram.rank1.totalEnergy   31251516060                       # Total energy per rank (pJ)
system.mem_ctrls.dram.rank1.averagePower   499.619897                       # Core power per rank (mW)
system.mem_ctrls.dram.rank1.totalIdleTime            0                       # Total Idle time Per DRAM Rank
system.mem_ctrls.dram.rank1.pwrStateTime::IDLE  33578980000                       # Time in different power states
system.mem_ctrls.dram.rank1.pwrStateTime::REF   2088580000                       # Time in different power states
system.mem_ctrls.dram.rank1.pwrStateTime::SREF            0                       # Time in different power states
system.mem_ctrls.dram.rank1.pwrStateTime::PRE_PDN            0                       # Time in different power states
system.mem_ctrls.dram.rank1.pwrStateTime::ACT  26883023500                       # Time in different power states
system.mem_ctrls.dram.rank1.pwrStateTime::ACT_PDN            0                       # Time in different power states
system.mem_ctrls.power_state.pwrStateResidencyTicks::UNDEFINED  62550583500                       # Cumulative time (in ticks) in various power states
system.membus.trans_dist::ReadResp               1072                       # Transaction distribution
system.membus.trans_dist::WritebackDirty         6531                       # Transaction distribution
system.membus.trans_dist::CleanEvict              175                       # Transaction distribution
system.membus.trans_dist::ReadExReq             38810                       # Transaction distribution
system.membus.trans_dist::ReadExResp            38810                       # Transaction distribution
system.membus.trans_dist::ReadSharedReq          1072                       # Transaction distribution
system.membus.pkt_count_system.l2.mem_side_port::system.mem_ctrls.port        86470                       # Packet count per connected requestor and responder (bytes)
system.membus.pkt_count::total                  86470                       # Packet count per connected requestor and responder (bytes)
system.membus.pkt_size_system.l2.mem_side_port::system.mem_ctrls.port      2970432                       # Cumulative packet size per connected requestor and responder (bytes)
system.membus.pkt_size::total                 2970432                       # Cumulative packet size per connected requestor and responder (bytes)
system.membus.snoops                                0                       # Total snoops (count)
system.membus.snoopTraffic                          0                       # Total snoop traffic (bytes)
system.membus.snoop_fanout::samples             39882                       # Request fanout histogram
system.membus.snoop_fanout::mean                    0                       # Request fanout histogram
system.membus.snoop_fanout::stdev                   0                       # Request fanout histogram
system.membus.snoop_fanout::underflows              0      0.00%      0.00% # Request fanout histogram
system.membus.snoop_fanout::0                   39882    100.00%    100.00% # Request fanout histogram
system.membus.snoop_fanout::1                       0      0.00%    100.00% # Request fanout histogram
system.membus.snoop_fanout::overflows               0      0.00%    100.00% # Request fanout histogram
system.membus.snoop_fanout::min_value               0                       # Request fanout histogram
system.membus.snoop_fanout::max_value               0                       # Request fanout histogram
system.membus.snoop_fanout::total               39882                       # Request fanout histogram
system.membus.power_state.pwrStateResidencyTicks::UNDEFINED  62550583500                       # Cumulative time (in ticks) in various power states
system.membus.reqLayer0.occupancy            79872000                       # Layer occupancy (ticks)
system.membus.reqLayer0.utilization               0.1                       # Layer utilization (%)
system.membus.respLayer1.occupancy          211907500                       # Layer occupancy (ticks)
system.membus.respLayer1.utilization              0.3                       # Layer utilization (%)
system.tol2bus.trans_dist::ReadResp            550339                       # Transaction distribution
system.tol2bus.trans_dist::WritebackDirty        56444                       # Transaction distribution
system.tol2bus.trans_dist::WritebackClean       534721                       # Transaction distribution
system.tol2bus.trans_dist::CleanEvict            3686                       # Transaction distribution
system.tol2bus.trans_dist::ReadExReq            38819                       # Transaction distribution
system.tol2bus.trans_dist::ReadExResp           38819                       # Transaction distribution
system.tol2bus.trans_dist::ReadCleanReq        535123                       # Transaction distribution
system.tol2bus.trans_dist::ReadSharedReq        15216                       # Transaction distribution
system.tol2bus.pkt_count_system.cpu.icache.mem_side_port::system.l2.cpu_side_port      1604967                       # Packet count per connected requestor and responder (bytes)
system.tol2bus.pkt_count_system.cpu.dcache.mem_side_port::system.l2.cpu_side_port       161081                       # Packet count per connected requestor and responder (bytes)
system.tol2bus.pkt_count::total               1766048                       # Packet count per connected requestor and responder (bytes)
system.tol2bus.pkt_size_system.cpu.icache.mem_side_port::system.l2.cpu_side_port     68470016                       # Cumulative packet size per connected requestor and responder (bytes)
system.tol2bus.pkt_size_system.cpu.dcache.mem_side_port::system.l2.cpu_side_port      6652672                       # Cumulative packet size per connected requestor and responder (bytes)
system.tol2bus.pkt_size::total               75122688                       # Cumulative packet size per connected requestor and responder (bytes)
system.tol2bus.snoops                            7119                       # Total snoops (count)
system.tol2bus.snoopTraffic                    417984                       # Total snoop traffic (bytes)
system.tol2bus.snoop_fanout::samples           596277                       # Request fanout histogram
system.tol2bus.snoop_fanout::mean            0.000753                       # Request fanout histogram
system.tol2bus.snoop_fanout::stdev           0.027674                       # Request fanout histogram
system.tol2bus.snoop_fanout::underflows             0      0.00%      0.00% # Request fanout histogram
system.tol2bus.snoop_fanout::0                 595832     99.93%     99.93% # Request fanout histogram
system.tol2bus.snoop_fanout::1                    441      0.07%    100.00% # Request fanout histogram
system.tol2bus.snoop_fanout::2                      4      0.00%    100.00% # Request fanout histogram
system.tol2bus.snoop_fanout::overflows              0      0.00%    100.00% # Request fanout histogram
system.tol2bus.snoop_fanout::min_value              0                       # Request fanout histogram
system.tol2bus.snoop_fanout::max_value              2                       # Request fanout histogram
system.tol2bus.snoop_fanout::total             596277                       # Request fanout histogram
system.tol2bus.power_state.pwrStateResidencyTicks::UNDEFINED  62550583500                       # Cumulative time (in ticks) in various power states
system.tol2bus.reqLayer0.occupancy         1173079000                       # Layer occupancy (ticks)
system.tol2bus.reqLayer0.utilization              1.9                       # Layer utilization (%)
system.tol2bus.respLayer0.occupancy         802684999                       # Layer occupancy (ticks)
system.tol2bus.respLayer0.utilization             1.3                       # Layer utilization (%)
system.tol2bus.respLayer1.occupancy          81054995                       # Layer occupancy (ticks)
system.tol2bus.respLayer1.utilization             0.1                       # Layer utilization (%)
system.voltage_domain.voltage                       1                       # Voltage in Volts

---------- End Simulation Statistics   ----------
