
---------- Begin Simulation Statistics ----------
final_tick                                   45943011                       # Number of ticks from beginning of simulation (restored from checkpoints and never reset)
host_inst_rate                                 589427                       # Simulator instruction rate (inst/s)
host_mem_usage                                 654372                       # Number of bytes of host memory used
host_op_rate                                   667294                       # Simulator op (including micro ops) rate (op/s)
host_seconds                                     0.02                       # Real time elapsed on the host
host_tick_rate                             2674665239                       # Simulator tick rate (ticks/s)
sim_freq                                 1000000000000                       # Frequency of simulated ticks
sim_insts                                       10081                       # Number of instructions simulated
sim_ops                                         11454                       # Number of ops (including micro ops) simulated
sim_seconds                                  0.000046                       # Number of seconds simulated
sim_ticks                                    45943011                       # Number of ticks simulated
system.cpu.Branches                              1982                       # Number of branches fetched
system.cpu.committedInsts                       10081                       # Number of instructions committed
system.cpu.committedOps                         11454                       # Number of ops (including micro ops) committed
system.cpu.idle_fraction                     0.000000                       # Percentage of idle cycles
system.cpu.not_idle_fraction                 1.000000                       # Percentage of non-idle cycles
system.cpu.numCycles                           137967                       # number of cpu cycles simulated
system.cpu.numWorkItemsCompleted                    0                       # number of work items this cpu completed
system.cpu.numWorkItemsStarted                      0                       # number of work items this cpu started
system.cpu.num_busy_cycles               137966.996997                       # Number of busy cycles
system.cpu.num_cc_register_reads                39317                       # number of times the CC registers were read
system.cpu.num_cc_register_writes                6623                       # number of times the CC registers were written
system.cpu.num_conditional_control_insts         1449                       # number of instructions that are conditional controls
system.cpu.num_fp_alu_accesses                      0                       # Number of float alu accesses
system.cpu.num_fp_insts                             0                       # number of float instructions
system.cpu.num_fp_register_reads                    0                       # number of times the floating registers were read
system.cpu.num_fp_register_writes                   0                       # number of times the floating registers were written
system.cpu.num_func_calls                         343                       # number of times a function call or return occured
system.cpu.num_idle_cycles                   0.003003                       # Number of idle cycles
system.cpu.num_int_alu_accesses                  9962                       # Number of integer alu accesses
system.cpu.num_int_insts                         9962                       # number of integer instructions
system.cpu.num_int_register_reads               16521                       # number of times the integer registers were read
system.cpu.num_int_register_writes               6904                       # number of times the integer registers were written
system.cpu.num_load_insts                        1723                       # Number of load instructions
system.cpu.num_mem_refs                          3475                       # number of memory refs
system.cpu.num_store_insts                       1752                       # Number of store instructions
system.cpu.num_vec_alu_accesses                     0                       # Number of vector alu accesses
system.cpu.num_vec_insts                            0                       # number of vector instructions
system.cpu.num_vec_register_reads                  46                       # number of times the vector registers were read
system.cpu.num_vec_register_writes                 17                       # number of times the vector registers were written
system.cpu.op_class::No_OpClass                     0      0.00%      0.00% # Class of executed instruction
system.cpu.op_class::IntAlu                      7914     68.45%     68.45% # Class of executed instruction
system.cpu.op_class::IntMult                      151      1.31%     69.76% # Class of executed instruction
system.cpu.op_class::IntDiv                         0      0.00%     69.76% # Class of executed instruction
system.cpu.op_class::FloatAdd                       0      0.00%     69.76% # Class of executed instruction
system.cpu.op_class::FloatCmp                       0      0.00%     69.76% # Class of executed instruction
system.cpu.op_class::FloatCvt                       0      0.00%     69.76% # Class of executed instruction
system.cpu.op_class::FloatMult                      0      0.00%     69.76% # Class of executed instruction
system.cpu.op_class::FloatMultAcc                   0      0.00%     69.76% # Class of executed instruction
system.cpu.op_class::FloatDiv                       0      0.00%     69.76% # Class of executed instruction
system.cpu.op_class::FloatMisc                      0      0.00%     69.76% # Class of executed instruction
system.cpu.op_class::FloatSqrt                      0      0.00%     69.76% # Class of executed instruction
system.cpu.op_class::SimdAdd                        0      0.00%     69.76% # Class of executed instruction
system.cpu.op_class::SimdAddAcc                     0      0.00%     69.76% # Class of executed instruction
system.cpu.op_class::SimdAlu                        0      0.00%     69.76% # Class of executed instruction
system.cpu.op_class::SimdCmp                        0      0.00%     69.76% # Class of executed instruction
system.cpu.op_class::SimdCvt                        0      0.00%     69.76% # Class of executed instruction
system.cpu.op_class::SimdMisc                       0      0.00%     69.76% # Class of executed instruction
system.cpu.op_class::SimdMult                       0      0.00%     69.76% # Class of executed instruction
system.cpu.op_class::SimdMultAcc                    0      0.00%     69.76% # Class of executed instruction
system.cpu.op_class::SimdShift                      0      0.00%     69.76% # Class of executed instruction
system.cpu.op_class::SimdShiftAcc                   0      0.00%     69.76% # Class of executed instruction
system.cpu.op_class::SimdDiv                        0      0.00%     69.76% # Class of executed instruction
system.cpu.op_class::SimdSqrt                       0      0.00%     69.76% # Class of executed instruction
system.cpu.op_class::SimdFloatAdd                   0      0.00%     69.76% # Class of executed instruction
system.cpu.op_class::SimdFloatAlu                   0      0.00%     69.76% # Class of executed instruction
system.cpu.op_class::SimdFloatCmp                   0      0.00%     69.76% # Class of executed instruction
system.cpu.op_class::SimdFloatCvt                   0      0.00%     69.76% # Class of executed instruction
system.cpu.op_class::SimdFloatDiv                   0      0.00%     69.76% # Class of executed instruction
system.cpu.op_class::SimdFloatMisc                 21      0.18%     69.94% # Class of executed instruction
system.cpu.op_class::SimdFloatMult                  0      0.00%     69.94% # Class of executed instruction
system.cpu.op_class::SimdFloatMultAcc               0      0.00%     69.94% # Class of executed instruction
system.cpu.op_class::SimdFloatSqrt                  0      0.00%     69.94% # Class of executed instruction
system.cpu.op_class::SimdReduceAdd                  0      0.00%     69.94% # Class of executed instruction
system.cpu.op_class::SimdReduceAlu                  0      0.00%     69.94% # Class of executed instruction
system.cpu.op_class::SimdReduceCmp                  0      0.00%     69.94% # Class of executed instruction
system.cpu.op_class::SimdFloatReduceAdd             0      0.00%     69.94% # Class of executed instruction
system.cpu.op_class::SimdFloatReduceCmp             0      0.00%     69.94% # Class of executed instruction
system.cpu.op_class::SimdAes                        0      0.00%     69.94% # Class of executed instruction
system.cpu.op_class::SimdAesMix                     0      0.00%     69.94% # Class of executed instruction
system.cpu.op_class::SimdSha1Hash                   0      0.00%     69.94% # Class of executed instruction
system.cpu.op_class::SimdSha1Hash2                  0      0.00%     69.94% # Class of executed instruction
system.cpu.op_class::SimdSha256Hash                 0      0.00%     69.94% # Class of executed instruction
system.cpu.op_class::SimdSha256Hash2                0      0.00%     69.94% # Class of executed instruction
system.cpu.op_class::SimdShaSigma2                  0      0.00%     69.94% # Class of executed instruction
system.cpu.op_class::SimdShaSigma3                  0      0.00%     69.94% # Class of executed instruction
system.cpu.op_class::SimdPredAlu                    0      0.00%     69.94% # Class of executed instruction
system.cpu.op_class::MemRead                     1723     14.90%     84.85% # Class of executed instruction
system.cpu.op_class::MemWrite                    1752     15.15%    100.00% # Class of executed instruction
system.cpu.op_class::FloatMemRead                   0      0.00%    100.00% # Class of executed instruction
system.cpu.op_class::FloatMemWrite                  0      0.00%    100.00% # Class of executed instruction
system.cpu.op_class::IprAccess                      0      0.00%    100.00% # Class of executed instruction
system.cpu.op_class::InstPrefetch                   0      0.00%    100.00% # Class of executed instruction
system.cpu.op_class::total                      11561                       # Class of executed instruction
system.cpu.workload.numSyscalls                    11                       # Number of system calls
system.membus.snoop_filter.hit_multi_requests            1                       # Number of requests hitting in the snoop filter with multiple (>1) holders of the requested data.
system.membus.snoop_filter.hit_multi_snoops            0                       # Number of snoops hitting in the snoop filter with multiple (>1) holders of the requested data.
system.membus.snoop_filter.hit_single_requests           44                       # Number of requests hitting in the snoop filter with a single holder of the requested data.
system.membus.snoop_filter.hit_single_snoops            0                       # Number of snoops hitting in the snoop filter with a single holder of the requested data.
system.membus.snoop_filter.tot_requests           504                       # Total number of requests made to the snoop filter.
system.membus.snoop_filter.tot_snoops               0                       # Total number of snoops made to the snoop filter.
system.clk_domain.clock                          1000                       # Clock period in ticks
system.cpu.dcache.demand_hits::.cpu.data         3174                       # number of demand (read+write) hits
system.cpu.dcache.demand_hits::total             3174                       # number of demand (read+write) hits
system.cpu.dcache.overall_hits::.cpu.data         3191                       # number of overall hits
system.cpu.dcache.overall_hits::total            3191                       # number of overall hits
system.cpu.dcache.demand_misses::.cpu.data          170                       # number of demand (read+write) misses
system.cpu.dcache.demand_misses::total            170                       # number of demand (read+write) misses
system.cpu.dcache.overall_misses::.cpu.data          183                       # number of overall misses
system.cpu.dcache.overall_misses::total           183                       # number of overall misses
system.cpu.dcache.demand_miss_latency::.cpu.data     13256734                       # number of demand (read+write) miss cycles
system.cpu.dcache.demand_miss_latency::total     13256734                       # number of demand (read+write) miss cycles
system.cpu.dcache.overall_miss_latency::.cpu.data     13256734                       # number of overall miss cycles
system.cpu.dcache.overall_miss_latency::total     13256734                       # number of overall miss cycles
system.cpu.dcache.demand_accesses::.cpu.data         3344                       # number of demand (read+write) accesses
system.cpu.dcache.demand_accesses::total         3344                       # number of demand (read+write) accesses
system.cpu.dcache.overall_accesses::.cpu.data         3374                       # number of overall (read+write) accesses
system.cpu.dcache.overall_accesses::total         3374                       # number of overall (read+write) accesses
system.cpu.dcache.demand_miss_rate::.cpu.data     0.050837                       # miss rate for demand accesses
system.cpu.dcache.demand_miss_rate::total     0.050837                       # miss rate for demand accesses
system.cpu.dcache.overall_miss_rate::.cpu.data     0.054238                       # miss rate for overall accesses
system.cpu.dcache.overall_miss_rate::total     0.054238                       # miss rate for overall accesses
system.cpu.dcache.demand_avg_miss_latency::.cpu.data 77980.788235                       # average overall miss latency
system.cpu.dcache.demand_avg_miss_latency::total 77980.788235                       # average overall miss latency
system.cpu.dcache.overall_avg_miss_latency::.cpu.data 72441.169399                       # average overall miss latency
system.cpu.dcache.overall_avg_miss_latency::total 72441.169399                       # average overall miss latency
system.cpu.dcache.blocked_cycles::no_mshrs            0                       # number of cycles access was blocked
system.cpu.dcache.blocked_cycles::no_targets            0                       # number of cycles access was blocked
system.cpu.dcache.blocked::no_mshrs                 0                       # number of cycles access was blocked
system.cpu.dcache.blocked::no_targets               0                       # number of cycles access was blocked
system.cpu.dcache.avg_blocked_cycles::no_mshrs          nan                       # average number of cycles each access was blocked
system.cpu.dcache.avg_blocked_cycles::no_targets          nan                       # average number of cycles each access was blocked
system.cpu.dcache.demand_mshr_hits::.cpu.data            2                       # number of demand (read+write) MSHR hits
system.cpu.dcache.demand_mshr_hits::total            2                       # number of demand (read+write) MSHR hits
system.cpu.dcache.overall_mshr_hits::.cpu.data            2                       # number of overall MSHR hits
system.cpu.dcache.overall_mshr_hits::total            2                       # number of overall MSHR hits
system.cpu.dcache.demand_mshr_misses::.cpu.data          168                       # number of demand (read+write) MSHR misses
system.cpu.dcache.demand_mshr_misses::total          168                       # number of demand (read+write) MSHR misses
system.cpu.dcache.overall_mshr_misses::.cpu.data          176                       # number of overall MSHR misses
system.cpu.dcache.overall_mshr_misses::total          176                       # number of overall MSHR misses
system.cpu.dcache.demand_mshr_miss_latency::.cpu.data     12965799                       # number of demand (read+write) MSHR miss cycles
system.cpu.dcache.demand_mshr_miss_latency::total     12965799                       # number of demand (read+write) MSHR miss cycles
system.cpu.dcache.overall_mshr_miss_latency::.cpu.data     13601444                       # number of overall MSHR miss cycles
system.cpu.dcache.overall_mshr_miss_latency::total     13601444                       # number of overall MSHR miss cycles
system.cpu.dcache.demand_mshr_miss_rate::.cpu.data     0.050239                       # mshr miss rate for demand accesses
system.cpu.dcache.demand_mshr_miss_rate::total     0.050239                       # mshr miss rate for demand accesses
system.cpu.dcache.overall_mshr_miss_rate::.cpu.data     0.052164                       # mshr miss rate for overall accesses
system.cpu.dcache.overall_mshr_miss_rate::total     0.052164                       # mshr miss rate for overall accesses
system.cpu.dcache.demand_avg_mshr_miss_latency::.cpu.data 77177.375000                       # average overall mshr miss latency
system.cpu.dcache.demand_avg_mshr_miss_latency::total 77177.375000                       # average overall mshr miss latency
system.cpu.dcache.overall_avg_mshr_miss_latency::.cpu.data 77280.931818                       # average overall mshr miss latency
system.cpu.dcache.overall_avg_mshr_miss_latency::total 77280.931818                       # average overall mshr miss latency
system.cpu.dcache.replacements                      0                       # number of replacements
system.cpu.dcache.ReadReq_hits::.cpu.data         1547                       # number of ReadReq hits
system.cpu.dcache.ReadReq_hits::total            1547                       # number of ReadReq hits
system.cpu.dcache.ReadReq_misses::.cpu.data           98                       # number of ReadReq misses
system.cpu.dcache.ReadReq_misses::total            98                       # number of ReadReq misses
system.cpu.dcache.ReadReq_miss_latency::.cpu.data      7675654                       # number of ReadReq miss cycles
system.cpu.dcache.ReadReq_miss_latency::total      7675654                       # number of ReadReq miss cycles
system.cpu.dcache.ReadReq_accesses::.cpu.data         1645                       # number of ReadReq accesses(hits+misses)
system.cpu.dcache.ReadReq_accesses::total         1645                       # number of ReadReq accesses(hits+misses)
system.cpu.dcache.ReadReq_miss_rate::.cpu.data     0.059574                       # miss rate for ReadReq accesses
system.cpu.dcache.ReadReq_miss_rate::total     0.059574                       # miss rate for ReadReq accesses
system.cpu.dcache.ReadReq_avg_miss_latency::.cpu.data        78323                       # average ReadReq miss latency
system.cpu.dcache.ReadReq_avg_miss_latency::total        78323                       # average ReadReq miss latency
system.cpu.dcache.ReadReq_mshr_hits::.cpu.data            2                       # number of ReadReq MSHR hits
system.cpu.dcache.ReadReq_mshr_hits::total            2                       # number of ReadReq MSHR hits
system.cpu.dcache.ReadReq_mshr_misses::.cpu.data           96                       # number of ReadReq MSHR misses
system.cpu.dcache.ReadReq_mshr_misses::total           96                       # number of ReadReq MSHR misses
system.cpu.dcache.ReadReq_mshr_miss_latency::.cpu.data      7444849                       # number of ReadReq MSHR miss cycles
system.cpu.dcache.ReadReq_mshr_miss_latency::total      7444849                       # number of ReadReq MSHR miss cycles
system.cpu.dcache.ReadReq_mshr_miss_rate::.cpu.data     0.058359                       # mshr miss rate for ReadReq accesses
system.cpu.dcache.ReadReq_mshr_miss_rate::total     0.058359                       # mshr miss rate for ReadReq accesses
system.cpu.dcache.ReadReq_avg_mshr_miss_latency::.cpu.data 77550.510417                       # average ReadReq mshr miss latency
system.cpu.dcache.ReadReq_avg_mshr_miss_latency::total 77550.510417                       # average ReadReq mshr miss latency
system.cpu.dcache.WriteReq_hits::.cpu.data         1627                       # number of WriteReq hits
system.cpu.dcache.WriteReq_hits::total           1627                       # number of WriteReq hits
system.cpu.dcache.WriteReq_misses::.cpu.data           72                       # number of WriteReq misses
system.cpu.dcache.WriteReq_misses::total           72                       # number of WriteReq misses
system.cpu.dcache.WriteReq_miss_latency::.cpu.data      5581080                       # number of WriteReq miss cycles
system.cpu.dcache.WriteReq_miss_latency::total      5581080                       # number of WriteReq miss cycles
system.cpu.dcache.WriteReq_accesses::.cpu.data         1699                       # number of WriteReq accesses(hits+misses)
system.cpu.dcache.WriteReq_accesses::total         1699                       # number of WriteReq accesses(hits+misses)
system.cpu.dcache.WriteReq_miss_rate::.cpu.data     0.042378                       # miss rate for WriteReq accesses
system.cpu.dcache.WriteReq_miss_rate::total     0.042378                       # miss rate for WriteReq accesses
system.cpu.dcache.WriteReq_avg_miss_latency::.cpu.data        77515                       # average WriteReq miss latency
system.cpu.dcache.WriteReq_avg_miss_latency::total        77515                       # average WriteReq miss latency
system.cpu.dcache.WriteReq_mshr_misses::.cpu.data           72                       # number of WriteReq MSHR misses
system.cpu.dcache.WriteReq_mshr_misses::total           72                       # number of WriteReq MSHR misses
system.cpu.dcache.WriteReq_mshr_miss_latency::.cpu.data      5520950                       # number of WriteReq MSHR miss cycles
system.cpu.dcache.WriteReq_mshr_miss_latency::total      5520950                       # number of WriteReq MSHR miss cycles
system.cpu.dcache.WriteReq_mshr_miss_rate::.cpu.data     0.042378                       # mshr miss rate for WriteReq accesses
system.cpu.dcache.WriteReq_mshr_miss_rate::total     0.042378                       # mshr miss rate for WriteReq accesses
system.cpu.dcache.WriteReq_avg_mshr_miss_latency::.cpu.data 76679.861111                       # average WriteReq mshr miss latency
system.cpu.dcache.WriteReq_avg_mshr_miss_latency::total 76679.861111                       # average WriteReq mshr miss latency
system.cpu.dcache.SoftPFReq_hits::.cpu.data           17                       # number of SoftPFReq hits
system.cpu.dcache.SoftPFReq_hits::total            17                       # number of SoftPFReq hits
system.cpu.dcache.SoftPFReq_misses::.cpu.data           13                       # number of SoftPFReq misses
system.cpu.dcache.SoftPFReq_misses::total           13                       # number of SoftPFReq misses
system.cpu.dcache.SoftPFReq_accesses::.cpu.data           30                       # number of SoftPFReq accesses(hits+misses)
system.cpu.dcache.SoftPFReq_accesses::total           30                       # number of SoftPFReq accesses(hits+misses)
system.cpu.dcache.SoftPFReq_miss_rate::.cpu.data     0.433333                       # miss rate for SoftPFReq accesses
system.cpu.dcache.SoftPFReq_miss_rate::total     0.433333                       # miss rate for SoftPFReq accesses
system.cpu.dcache.SoftPFReq_mshr_misses::.cpu.data            8                       # number of SoftPFReq MSHR misses
system.cpu.dcache.SoftPFReq_mshr_misses::total            8                       # number of SoftPFReq MSHR misses
system.cpu.dcache.SoftPFReq_mshr_miss_latency::.cpu.data       635645                       # number of SoftPFReq MSHR miss cycles
system.cpu.dcache.SoftPFReq_mshr_miss_latency::total       635645                       # number of SoftPFReq MSHR miss cycles
system.cpu.dcache.SoftPFReq_mshr_miss_rate::.cpu.data     0.266667                       # mshr miss rate for SoftPFReq accesses
system.cpu.dcache.SoftPFReq_mshr_miss_rate::total     0.266667                       # mshr miss rate for SoftPFReq accesses
system.cpu.dcache.SoftPFReq_avg_mshr_miss_latency::.cpu.data 79455.625000                       # average SoftPFReq mshr miss latency
system.cpu.dcache.SoftPFReq_avg_mshr_miss_latency::total 79455.625000                       # average SoftPFReq mshr miss latency
system.cpu.dcache.LoadLockedReq_hits::.cpu.data           18                       # number of LoadLockedReq hits
system.cpu.dcache.LoadLockedReq_hits::total           18                       # number of LoadLockedReq hits
system.cpu.dcache.LoadLockedReq_accesses::.cpu.data           18                       # number of LoadLockedReq accesses(hits+misses)
system.cpu.dcache.LoadLockedReq_accesses::total           18                       # number of LoadLockedReq accesses(hits+misses)
system.cpu.dcache.StoreCondReq_hits::.cpu.data           18                       # number of StoreCondReq hits
system.cpu.dcache.StoreCondReq_hits::total           18                       # number of StoreCondReq hits
system.cpu.dcache.StoreCondReq_accesses::.cpu.data           18                       # number of StoreCondReq accesses(hits+misses)
system.cpu.dcache.StoreCondReq_accesses::total           18                       # number of StoreCondReq accesses(hits+misses)
system.cpu.dcache.power_state.pwrStateResidencyTicks::UNDEFINED     45943011                       # Cumulative time (in ticks) in various power states
system.cpu.dcache.tags.tagsinuse           101.248958                       # Cycle average of tags in use
system.cpu.dcache.tags.total_refs                3403                       # Total number of references to valid blocks.
system.cpu.dcache.tags.sampled_refs               176                       # Sample count of references to valid blocks.
system.cpu.dcache.tags.avg_refs             19.335227                       # Average number of references to valid blocks.
system.cpu.dcache.tags.warmup_cycle            174000                       # Cycle when the warmup percentage was hit.
system.cpu.dcache.tags.occ_blocks::.cpu.data   101.248958                       # Average occupied blocks per requestor
system.cpu.dcache.tags.occ_percent::.cpu.data     0.098876                       # Average percentage of cache occupancy
system.cpu.dcache.tags.occ_percent::total     0.098876                       # Average percentage of cache occupancy
system.cpu.dcache.tags.occ_task_id_blocks::1024          176                       # Occupied blocks per task id
system.cpu.dcache.tags.age_task_id_blocks_1024::0           23                       # Occupied blocks per task id
system.cpu.dcache.tags.age_task_id_blocks_1024::1          153                       # Occupied blocks per task id
system.cpu.dcache.tags.occ_task_id_percent::1024     0.171875                       # Percentage of cache occupancy per task id
system.cpu.dcache.tags.tag_accesses              6996                       # Number of tag accesses
system.cpu.dcache.tags.data_accesses             6996                       # Number of data accesses
system.cpu.dcache.tags.power_state.pwrStateResidencyTicks::UNDEFINED     45943011                       # Cumulative time (in ticks) in various power states
system.cpu.dtb.instHits                             0                       # ITB inst hits
system.cpu.dtb.instMisses                           0                       # ITB inst misses
system.cpu.dtb.readHits                             0                       # DTB read hits
system.cpu.dtb.readMisses                           0                       # DTB read misses
system.cpu.dtb.writeHits                            0                       # DTB write hits
system.cpu.dtb.writeMisses                          0                       # DTB write misses
system.cpu.dtb.inserts                              0                       # Number of times an entry is inserted into the TLB
system.cpu.dtb.flushTlb                             0                       # Number of times complete TLB was flushed
system.cpu.dtb.flushTlbMva                          0                       # Number of times TLB was flushed by MVA
system.cpu.dtb.flushTlbMvaAsid                      0                       # Number of times TLB was flushed by MVA & ASID
system.cpu.dtb.flushTlbAsid                         0                       # Number of times TLB was flushed by ASID
system.cpu.dtb.flushedEntries                       0                       # Number of entries that have been flushed from TLB
system.cpu.dtb.alignFaults                          0                       # Number of TLB faults due to alignment restrictions
system.cpu.dtb.prefetchFaults                       0                       # Number of TLB faults due to prefetch
system.cpu.dtb.domainFaults                         0                       # Number of TLB faults due to domain restrictions
system.cpu.dtb.permsFaults                          0                       # Number of TLB faults due to permissions restrictions
system.cpu.dtb.readAccesses                         0                       # DTB read accesses
system.cpu.dtb.writeAccesses                        0                       # DTB write accesses
system.cpu.dtb.instAccesses                         0                       # ITB inst accesses
system.cpu.dtb.hits                                 0                       # Total TLB (inst and data) hits
system.cpu.dtb.misses                               0                       # Total TLB (inst and data) misses
system.cpu.dtb.accesses                             0                       # Total TLB (inst and data) accesses
system.cpu.dtb.stage2_mmu.stage2_tlb.instHits            0                       # ITB inst hits
system.cpu.dtb.stage2_mmu.stage2_tlb.instMisses            0                       # ITB inst misses
system.cpu.dtb.stage2_mmu.stage2_tlb.readHits            0                       # DTB read hits
system.cpu.dtb.stage2_mmu.stage2_tlb.readMisses            0                       # DTB read misses
system.cpu.dtb.stage2_mmu.stage2_tlb.writeHits            0                       # DTB write hits
system.cpu.dtb.stage2_mmu.stage2_tlb.writeMisses            0                       # DTB write misses
system.cpu.dtb.stage2_mmu.stage2_tlb.inserts            0                       # Number of times an entry is inserted into the TLB
system.cpu.dtb.stage2_mmu.stage2_tlb.flushTlb            0                       # Number of times complete TLB was flushed
system.cpu.dtb.stage2_mmu.stage2_tlb.flushTlbMva            0                       # Number of times TLB was flushed by MVA
system.cpu.dtb.stage2_mmu.stage2_tlb.flushTlbMvaAsid            0                       # Number of times TLB was flushed by MVA & ASID
system.cpu.dtb.stage2_mmu.stage2_tlb.flushTlbAsid            0                       # Number of times TLB was flushed by ASID
system.cpu.dtb.stage2_mmu.stage2_tlb.flushedEntries            0                       # Number of entries that have been flushed from TLB
system.cpu.dtb.stage2_mmu.stage2_tlb.alignFaults            0                       # Number of TLB faults due to alignment restrictions
system.cpu.dtb.stage2_mmu.stage2_tlb.prefetchFaults            0                       # Number of TLB faults due to prefetch
system.cpu.dtb.stage2_mmu.stage2_tlb.domainFaults            0                       # Number of TLB faults due to domain restrictions
system.cpu.dtb.stage2_mmu.stage2_tlb.permsFaults            0                       # Number of TLB faults due to permissions restrictions
system.cpu.dtb.stage2_mmu.stage2_tlb.readAccesses            0                       # DTB read accesses
system.cpu.dtb.stage2_mmu.stage2_tlb.writeAccesses            0                       # DTB write accesses
system.cpu.dtb.stage2_mmu.stage2_tlb.instAccesses            0                       # ITB inst accesses
system.cpu.dtb.stage2_mmu.stage2_tlb.hits            0                       # Total TLB (inst and data) hits
system.cpu.dtb.stage2_mmu.stage2_tlb.misses            0                       # Total TLB (inst and data) misses
system.cpu.dtb.stage2_mmu.stage2_tlb.accesses            0                       # Total TLB (inst and data) accesses
system.cpu.dtb.stage2_mmu.stage2_tlb.walker.walks            0                       # Table walker walks requested
system.cpu.dtb.stage2_mmu.stage2_tlb.walker.requestOrigin_Requested::Data            0                       # Table walker requests started/completed, data/inst
system.cpu.dtb.stage2_mmu.stage2_tlb.walker.requestOrigin_Requested::Inst            0                       # Table walker requests started/completed, data/inst
system.cpu.dtb.stage2_mmu.stage2_tlb.walker.requestOrigin_Requested::total            0                       # Table walker requests started/completed, data/inst
system.cpu.dtb.stage2_mmu.stage2_tlb.walker.requestOrigin_Completed::Data            0                       # Table walker requests started/completed, data/inst
system.cpu.dtb.stage2_mmu.stage2_tlb.walker.requestOrigin_Completed::Inst            0                       # Table walker requests started/completed, data/inst
system.cpu.dtb.stage2_mmu.stage2_tlb.walker.requestOrigin_Completed::total            0                       # Table walker requests started/completed, data/inst
system.cpu.dtb.stage2_mmu.stage2_tlb.walker.requestOrigin::total            0                       # Table walker requests started/completed, data/inst
system.cpu.dtb.stage2_mmu.stage2_tlb.walker.power_state.pwrStateResidencyTicks::UNDEFINED     45943011                       # Cumulative time (in ticks) in various power states
system.cpu.dtb.walker.walks                         0                       # Table walker walks requested
system.cpu.dtb.walker.requestOrigin_Requested::Data            0                       # Table walker requests started/completed, data/inst
system.cpu.dtb.walker.requestOrigin_Requested::Inst            0                       # Table walker requests started/completed, data/inst
system.cpu.dtb.walker.requestOrigin_Requested::total            0                       # Table walker requests started/completed, data/inst
system.cpu.dtb.walker.requestOrigin_Completed::Data            0                       # Table walker requests started/completed, data/inst
system.cpu.dtb.walker.requestOrigin_Completed::Inst            0                       # Table walker requests started/completed, data/inst
system.cpu.dtb.walker.requestOrigin_Completed::total            0                       # Table walker requests started/completed, data/inst
system.cpu.dtb.walker.requestOrigin::total            0                       # Table walker requests started/completed, data/inst
system.cpu.dtb.walker.power_state.pwrStateResidencyTicks::UNDEFINED     45943011                       # Cumulative time (in ticks) in various power states
system.cpu.icache.demand_hits::.cpu.inst        11610                       # number of demand (read+write) hits
system.cpu.icache.demand_hits::total            11610                       # number of demand (read+write) hits
system.cpu.icache.overall_hits::.cpu.inst        11610                       # number of overall hits
system.cpu.icache.overall_hits::total           11610                       # number of overall hits
system.cpu.icache.demand_misses::.cpu.inst          299                       # number of demand (read+write) misses
system.cpu.icache.demand_misses::total            299                       # number of demand (read+write) misses
system.cpu.icache.overall_misses::.cpu.inst          299                       # number of overall misses
system.cpu.icache.overall_misses::total           299                       # number of overall misses
system.cpu.icache.demand_miss_latency::.cpu.inst     21967344                       # number of demand (read+write) miss cycles
system.cpu.icache.demand_miss_latency::total     21967344                       # number of demand (read+write) miss cycles
system.cpu.icache.overall_miss_latency::.cpu.inst     21967344                       # number of overall miss cycles
system.cpu.icache.overall_miss_latency::total     21967344                       # number of overall miss cycles
system.cpu.icache.demand_accesses::.cpu.inst        11909                       # number of demand (read+write) accesses
system.cpu.icache.demand_accesses::total        11909                       # number of demand (read+write) accesses
system.cpu.icache.overall_accesses::.cpu.inst        11909                       # number of overall (read+write) accesses
system.cpu.icache.overall_accesses::total        11909                       # number of overall (read+write) accesses
system.cpu.icache.demand_miss_rate::.cpu.inst     0.025107                       # miss rate for demand accesses
system.cpu.icache.demand_miss_rate::total     0.025107                       # miss rate for demand accesses
system.cpu.icache.overall_miss_rate::.cpu.inst     0.025107                       # miss rate for overall accesses
system.cpu.icache.overall_miss_rate::total     0.025107                       # miss rate for overall accesses
system.cpu.icache.demand_avg_miss_latency::.cpu.inst 73469.377926                       # average overall miss latency
system.cpu.icache.demand_avg_miss_latency::total 73469.377926                       # average overall miss latency
system.cpu.icache.overall_avg_miss_latency::.cpu.inst 73469.377926                       # average overall miss latency
system.cpu.icache.overall_avg_miss_latency::total 73469.377926                       # average overall miss latency
system.cpu.icache.blocked_cycles::no_mshrs            0                       # number of cycles access was blocked
system.cpu.icache.blocked_cycles::no_targets            0                       # number of cycles access was blocked
system.cpu.icache.blocked::no_mshrs                 0                       # number of cycles access was blocked
system.cpu.icache.blocked::no_targets               0                       # number of cycles access was blocked
system.cpu.icache.avg_blocked_cycles::no_mshrs          nan                       # average number of cycles each access was blocked
system.cpu.icache.avg_blocked_cycles::no_targets          nan                       # average number of cycles each access was blocked
system.cpu.icache.writebacks::.writebacks           29                       # number of writebacks
system.cpu.icache.writebacks::total                29                       # number of writebacks
system.cpu.icache.demand_mshr_misses::.cpu.inst          299                       # number of demand (read+write) MSHR misses
system.cpu.icache.demand_mshr_misses::total          299                       # number of demand (read+write) MSHR misses
system.cpu.icache.overall_mshr_misses::.cpu.inst          299                       # number of overall MSHR misses
system.cpu.icache.overall_mshr_misses::total          299                       # number of overall MSHR misses
system.cpu.icache.demand_mshr_miss_latency::.cpu.inst     21719600                       # number of demand (read+write) MSHR miss cycles
system.cpu.icache.demand_mshr_miss_latency::total     21719600                       # number of demand (read+write) MSHR miss cycles
system.cpu.icache.overall_mshr_miss_latency::.cpu.inst     21719600                       # number of overall MSHR miss cycles
system.cpu.icache.overall_mshr_miss_latency::total     21719600                       # number of overall MSHR miss cycles
system.cpu.icache.demand_mshr_miss_rate::.cpu.inst     0.025107                       # mshr miss rate for demand accesses
system.cpu.icache.demand_mshr_miss_rate::total     0.025107                       # mshr miss rate for demand accesses
system.cpu.icache.overall_mshr_miss_rate::.cpu.inst     0.025107                       # mshr miss rate for overall accesses
system.cpu.icache.overall_mshr_miss_rate::total     0.025107                       # mshr miss rate for overall accesses
system.cpu.icache.demand_avg_mshr_miss_latency::.cpu.inst 72640.802676                       # average overall mshr miss latency
system.cpu.icache.demand_avg_mshr_miss_latency::total 72640.802676                       # average overall mshr miss latency
system.cpu.icache.overall_avg_mshr_miss_latency::.cpu.inst 72640.802676                       # average overall mshr miss latency
system.cpu.icache.overall_avg_mshr_miss_latency::total 72640.802676                       # average overall mshr miss latency
system.cpu.icache.replacements                     29                       # number of replacements
system.cpu.icache.ReadReq_hits::.cpu.inst        11610                       # number of ReadReq hits
system.cpu.icache.ReadReq_hits::total           11610                       # number of ReadReq hits
system.cpu.icache.ReadReq_misses::.cpu.inst          299                       # number of ReadReq misses
system.cpu.icache.ReadReq_misses::total           299                       # number of ReadReq misses
system.cpu.icache.ReadReq_miss_latency::.cpu.inst     21967344                       # number of ReadReq miss cycles
system.cpu.icache.ReadReq_miss_latency::total     21967344                       # number of ReadReq miss cycles
system.cpu.icache.ReadReq_accesses::.cpu.inst        11909                       # number of ReadReq accesses(hits+misses)
system.cpu.icache.ReadReq_accesses::total        11909                       # number of ReadReq accesses(hits+misses)
system.cpu.icache.ReadReq_miss_rate::.cpu.inst     0.025107                       # miss rate for ReadReq accesses
system.cpu.icache.ReadReq_miss_rate::total     0.025107                       # miss rate for ReadReq accesses
system.cpu.icache.ReadReq_avg_miss_latency::.cpu.inst 73469.377926                       # average ReadReq miss latency
system.cpu.icache.ReadReq_avg_miss_latency::total 73469.377926                       # average ReadReq miss latency
system.cpu.icache.ReadReq_mshr_misses::.cpu.inst          299                       # number of ReadReq MSHR misses
system.cpu.icache.ReadReq_mshr_misses::total          299                       # number of ReadReq MSHR misses
system.cpu.icache.ReadReq_mshr_miss_latency::.cpu.inst     21719600                       # number of ReadReq MSHR miss cycles
system.cpu.icache.ReadReq_mshr_miss_latency::total     21719600                       # number of ReadReq MSHR miss cycles
system.cpu.icache.ReadReq_mshr_miss_rate::.cpu.inst     0.025107                       # mshr miss rate for ReadReq accesses
system.cpu.icache.ReadReq_mshr_miss_rate::total     0.025107                       # mshr miss rate for ReadReq accesses
system.cpu.icache.ReadReq_avg_mshr_miss_latency::.cpu.inst 72640.802676                       # average ReadReq mshr miss latency
system.cpu.icache.ReadReq_avg_mshr_miss_latency::total 72640.802676                       # average ReadReq mshr miss latency
system.cpu.icache.power_state.pwrStateResidencyTicks::UNDEFINED     45943011                       # Cumulative time (in ticks) in various power states
system.cpu.icache.tags.tagsinuse           135.359002                       # Cycle average of tags in use
system.cpu.icache.tags.total_refs               11909                       # Total number of references to valid blocks.
system.cpu.icache.tags.sampled_refs               299                       # Sample count of references to valid blocks.
system.cpu.icache.tags.avg_refs             39.829431                       # Average number of references to valid blocks.
system.cpu.icache.tags.warmup_cycle             91000                       # Cycle when the warmup percentage was hit.
system.cpu.icache.tags.occ_blocks::.cpu.inst   135.359002                       # Average occupied blocks per requestor
system.cpu.icache.tags.occ_percent::.cpu.inst     0.264373                       # Average percentage of cache occupancy
system.cpu.icache.tags.occ_percent::total     0.264373                       # Average percentage of cache occupancy
system.cpu.icache.tags.occ_task_id_blocks::1024          270                       # Occupied blocks per task id
system.cpu.icache.tags.age_task_id_blocks_1024::0           79                       # Occupied blocks per task id
system.cpu.icache.tags.age_task_id_blocks_1024::1          191                       # Occupied blocks per task id
system.cpu.icache.tags.occ_task_id_percent::1024     0.527344                       # Percentage of cache occupancy per task id
system.cpu.icache.tags.tag_accesses             24117                       # Number of tag accesses
system.cpu.icache.tags.data_accesses            24117                       # Number of data accesses
system.cpu.icache.tags.power_state.pwrStateResidencyTicks::UNDEFINED     45943011                       # Cumulative time (in ticks) in various power states
system.cpu.itb.instHits                             0                       # ITB inst hits
system.cpu.itb.instMisses                           0                       # ITB inst misses
system.cpu.itb.readHits                             0                       # DTB read hits
system.cpu.itb.readMisses                           0                       # DTB read misses
system.cpu.itb.writeHits                            0                       # DTB write hits
system.cpu.itb.writeMisses                          0                       # DTB write misses
system.cpu.itb.inserts                              0                       # Number of times an entry is inserted into the TLB
system.cpu.itb.flushTlb                             0                       # Number of times complete TLB was flushed
system.cpu.itb.flushTlbMva                          0                       # Number of times TLB was flushed by MVA
system.cpu.itb.flushTlbMvaAsid                      0                       # Number of times TLB was flushed by MVA & ASID
system.cpu.itb.flushTlbAsid                         0                       # Number of times TLB was flushed by ASID
system.cpu.itb.flushedEntries                       0                       # Number of entries that have been flushed from TLB
system.cpu.itb.alignFaults                          0                       # Number of TLB faults due to alignment restrictions
system.cpu.itb.prefetchFaults                       0                       # Number of TLB faults due to prefetch
system.cpu.itb.domainFaults                         0                       # Number of TLB faults due to domain restrictions
system.cpu.itb.permsFaults                          0                       # Number of TLB faults due to permissions restrictions
system.cpu.itb.readAccesses                         0                       # DTB read accesses
system.cpu.itb.writeAccesses                        0                       # DTB write accesses
system.cpu.itb.instAccesses                         0                       # ITB inst accesses
system.cpu.itb.hits                                 0                       # Total TLB (inst and data) hits
system.cpu.itb.misses                               0                       # Total TLB (inst and data) misses
system.cpu.itb.accesses                             0                       # Total TLB (inst and data) accesses
system.cpu.itb.stage2_mmu.stage2_tlb.instHits            0                       # ITB inst hits
system.cpu.itb.stage2_mmu.stage2_tlb.instMisses            0                       # ITB inst misses
system.cpu.itb.stage2_mmu.stage2_tlb.readHits            0                       # DTB read hits
system.cpu.itb.stage2_mmu.stage2_tlb.readMisses            0                       # DTB read misses
system.cpu.itb.stage2_mmu.stage2_tlb.writeHits            0                       # DTB write hits
system.cpu.itb.stage2_mmu.stage2_tlb.writeMisses            0                       # DTB write misses
system.cpu.itb.stage2_mmu.stage2_tlb.inserts            0                       # Number of times an entry is inserted into the TLB
system.cpu.itb.stage2_mmu.stage2_tlb.flushTlb            0                       # Number of times complete TLB was flushed
system.cpu.itb.stage2_mmu.stage2_tlb.flushTlbMva            0                       # Number of times TLB was flushed by MVA
system.cpu.itb.stage2_mmu.stage2_tlb.flushTlbMvaAsid            0                       # Number of times TLB was flushed by MVA & ASID
system.cpu.itb.stage2_mmu.stage2_tlb.flushTlbAsid            0                       # Number of times TLB was flushed by ASID
system.cpu.itb.stage2_mmu.stage2_tlb.flushedEntries            0                       # Number of entries that have been flushed from TLB
system.cpu.itb.stage2_mmu.stage2_tlb.alignFaults            0                       # Number of TLB faults due to alignment restrictions
system.cpu.itb.stage2_mmu.stage2_tlb.prefetchFaults            0                       # Number of TLB faults due to prefetch
system.cpu.itb.stage2_mmu.stage2_tlb.domainFaults            0                       # Number of TLB faults due to domain restrictions
system.cpu.itb.stage2_mmu.stage2_tlb.permsFaults            0                       # Number of TLB faults due to permissions restrictions
system.cpu.itb.stage2_mmu.stage2_tlb.readAccesses            0                       # DTB read accesses
system.cpu.itb.stage2_mmu.stage2_tlb.writeAccesses            0                       # DTB write accesses
system.cpu.itb.stage2_mmu.stage2_tlb.instAccesses            0                       # ITB inst accesses
system.cpu.itb.stage2_mmu.stage2_tlb.hits            0                       # Total TLB (inst and data) hits
system.cpu.itb.stage2_mmu.stage2_tlb.misses            0                       # Total TLB (inst and data) misses
system.cpu.itb.stage2_mmu.stage2_tlb.accesses            0                       # Total TLB (inst and data) accesses
system.cpu.itb.stage2_mmu.stage2_tlb.walker.walks            0                       # Table walker walks requested
system.cpu.itb.stage2_mmu.stage2_tlb.walker.requestOrigin_Requested::Data            0                       # Table walker requests started/completed, data/inst
system.cpu.itb.stage2_mmu.stage2_tlb.walker.requestOrigin_Requested::Inst            0                       # Table walker requests started/completed, data/inst
system.cpu.itb.stage2_mmu.stage2_tlb.walker.requestOrigin_Requested::total            0                       # Table walker requests started/completed, data/inst
system.cpu.itb.stage2_mmu.stage2_tlb.walker.requestOrigin_Completed::Data            0                       # Table walker requests started/completed, data/inst
system.cpu.itb.stage2_mmu.stage2_tlb.walker.requestOrigin_Completed::Inst            0                       # Table walker requests started/completed, data/inst
system.cpu.itb.stage2_mmu.stage2_tlb.walker.requestOrigin_Completed::total            0                       # Table walker requests started/completed, data/inst
system.cpu.itb.stage2_mmu.stage2_tlb.walker.requestOrigin::total            0                       # Table walker requests started/completed, data/inst
system.cpu.itb.stage2_mmu.stage2_tlb.walker.power_state.pwrStateResidencyTicks::UNDEFINED     45943011                       # Cumulative time (in ticks) in various power states
system.cpu.itb.walker.walks                         0                       # Table walker walks requested
system.cpu.itb.walker.requestOrigin_Requested::Data            0                       # Table walker requests started/completed, data/inst
system.cpu.itb.walker.requestOrigin_Requested::Inst            0                       # Table walker requests started/completed, data/inst
system.cpu.itb.walker.requestOrigin_Requested::total            0                       # Table walker requests started/completed, data/inst
system.cpu.itb.walker.requestOrigin_Completed::Data            0                       # Table walker requests started/completed, data/inst
system.cpu.itb.walker.requestOrigin_Completed::Inst            0                       # Table walker requests started/completed, data/inst
system.cpu.itb.walker.requestOrigin_Completed::total            0                       # Table walker requests started/completed, data/inst
system.cpu.itb.walker.requestOrigin::total            0                       # Table walker requests started/completed, data/inst
system.cpu.itb.walker.power_state.pwrStateResidencyTicks::UNDEFINED     45943011                       # Cumulative time (in ticks) in various power states
system.cpu.power_state.pwrStateResidencyTicks::ON     45943011                       # Cumulative time (in ticks) in various power states
system.cpu.thread0.numInsts                         0                       # Number of Instructions committed
system.cpu.thread0.numOps                           0                       # Number of Ops committed
system.cpu.thread0.numMemRefs                       0                       # Number of Memory References
system.cpu_clk_domain.clock                       333                       # Clock period in ticks
system.cpu_voltage_domain.voltage                   1                       # Voltage in Volts
system.mem_ctrls.avgPriority_.writebacks::samples        56.00                       # Average QoS priority value for accepted requests
system.mem_ctrls.avgPriority_.cpu.inst::samples       596.00                       # Average QoS priority value for accepted requests
system.mem_ctrls.avgPriority_.cpu.data::samples       352.00                       # Average QoS priority value for accepted requests
system.mem_ctrls.priorityMinLatency      0.000000022500                       # per QoS priority minimum request to response latency (s)
system.mem_ctrls.priorityMaxLatency      0.000029919618                       # per QoS priority maximum request to response latency (s)
system.mem_ctrls.numReadWriteTurnArounds            2                       # Number of turnarounds from READ to WRITE
system.mem_ctrls.numWriteReadTurnArounds            2                       # Number of turnarounds from WRITE to READ
system.mem_ctrls.numStayReadState                1458                       # Number of times bus staying in READ state
system.mem_ctrls.numStayWriteState                 33                       # Number of times bus staying in WRITE state
system.mem_ctrls.readReqs                         475                       # Number of read requests accepted
system.mem_ctrls.writeReqs                         28                       # Number of write requests accepted
system.mem_ctrls.readBursts                       950                       # Number of controller read bursts, including those serviced by the write queue
system.mem_ctrls.writeBursts                       56                       # Number of controller write bursts, including those merged in the write queue
system.mem_ctrls.servicedByWrQ                      2                       # Number of controller read bursts serviced by the write queue
system.mem_ctrls.mergedWrBursts                     0                       # Number of controller write bursts merged with an existing one
system.mem_ctrls.neitherReadNorWriteReqs            0                       # Number of requests that are neither read nor write
system.mem_ctrls.avgRdQLen                       2.03                       # Average read queue length when enqueuing
system.mem_ctrls.avgWrQLen                       8.71                       # Average write queue length when enqueuing
system.mem_ctrls.numRdRetry                         0                       # Number of times read queue was full causing retry
system.mem_ctrls.numWrRetry                         0                       # Number of times write queue was full causing retry
system.mem_ctrls.readPktSize::0                     0                       # Read request sizes (log2)
system.mem_ctrls.readPktSize::1                     0                       # Read request sizes (log2)
system.mem_ctrls.readPktSize::2                     0                       # Read request sizes (log2)
system.mem_ctrls.readPktSize::3                     0                       # Read request sizes (log2)
system.mem_ctrls.readPktSize::4                     0                       # Read request sizes (log2)
system.mem_ctrls.readPktSize::5                   950                       # Read request sizes (log2)
system.mem_ctrls.readPktSize::6                     0                       # Read request sizes (log2)
system.mem_ctrls.writePktSize::0                    0                       # Write request sizes (log2)
system.mem_ctrls.writePktSize::1                    0                       # Write request sizes (log2)
system.mem_ctrls.writePktSize::2                    0                       # Write request sizes (log2)
system.mem_ctrls.writePktSize::3                    0                       # Write request sizes (log2)
system.mem_ctrls.writePktSize::4                    0                       # Write request sizes (log2)
system.mem_ctrls.writePktSize::5                   56                       # Write request sizes (log2)
system.mem_ctrls.writePktSize::6                    0                       # Write request sizes (log2)
system.mem_ctrls.rdQLenPdf::0                     469                       # What read queue length does an incoming req see
system.mem_ctrls.rdQLenPdf::1                     469                       # What read queue length does an incoming req see
system.mem_ctrls.rdQLenPdf::2                       5                       # What read queue length does an incoming req see
system.mem_ctrls.rdQLenPdf::3                       5                       # What read queue length does an incoming req see
system.mem_ctrls.rdQLenPdf::4                       0                       # What read queue length does an incoming req see
system.mem_ctrls.rdQLenPdf::5                       0                       # What read queue length does an incoming req see
system.mem_ctrls.rdQLenPdf::6                       0                       # What read queue length does an incoming req see
system.mem_ctrls.rdQLenPdf::7                       0                       # What read queue length does an incoming req see
system.mem_ctrls.rdQLenPdf::8                       0                       # What read queue length does an incoming req see
system.mem_ctrls.rdQLenPdf::9                       0                       # What read queue length does an incoming req see
system.mem_ctrls.rdQLenPdf::10                      0                       # What read queue length does an incoming req see
system.mem_ctrls.rdQLenPdf::11                      0                       # What read queue length does an incoming req see
system.mem_ctrls.rdQLenPdf::12                      0                       # What read queue length does an incoming req see
system.mem_ctrls.rdQLenPdf::13                      0                       # What read queue length does an incoming req see
system.mem_ctrls.rdQLenPdf::14                      0                       # What read queue length does an incoming req see
system.mem_ctrls.rdQLenPdf::15                      0                       # What read queue length does an incoming req see
system.mem_ctrls.rdQLenPdf::16                      0                       # What read queue length does an incoming req see
system.mem_ctrls.rdQLenPdf::17                      0                       # What read queue length does an incoming req see
system.mem_ctrls.rdQLenPdf::18                      0                       # What read queue length does an incoming req see
system.mem_ctrls.rdQLenPdf::19                      0                       # What read queue length does an incoming req see
system.mem_ctrls.rdQLenPdf::20                      0                       # What read queue length does an incoming req see
system.mem_ctrls.rdQLenPdf::21                      0                       # What read queue length does an incoming req see
system.mem_ctrls.rdQLenPdf::22                      0                       # What read queue length does an incoming req see
system.mem_ctrls.rdQLenPdf::23                      0                       # What read queue length does an incoming req see
system.mem_ctrls.rdQLenPdf::24                      0                       # What read queue length does an incoming req see
system.mem_ctrls.rdQLenPdf::25                      0                       # What read queue length does an incoming req see
system.mem_ctrls.rdQLenPdf::26                      0                       # What read queue length does an incoming req see
system.mem_ctrls.rdQLenPdf::27                      0                       # What read queue length does an incoming req see
system.mem_ctrls.rdQLenPdf::28                      0                       # What read queue length does an incoming req see
system.mem_ctrls.rdQLenPdf::29                      0                       # What read queue length does an incoming req see
system.mem_ctrls.rdQLenPdf::30                      0                       # What read queue length does an incoming req see
system.mem_ctrls.rdQLenPdf::31                      0                       # What read queue length does an incoming req see
system.mem_ctrls.wrQLenPdf::0                       1                       # What write queue length does an incoming req see
system.mem_ctrls.wrQLenPdf::1                       1                       # What write queue length does an incoming req see
system.mem_ctrls.wrQLenPdf::2                       1                       # What write queue length does an incoming req see
system.mem_ctrls.wrQLenPdf::3                       1                       # What write queue length does an incoming req see
system.mem_ctrls.wrQLenPdf::4                       1                       # What write queue length does an incoming req see
system.mem_ctrls.wrQLenPdf::5                       1                       # What write queue length does an incoming req see
system.mem_ctrls.wrQLenPdf::6                       1                       # What write queue length does an incoming req see
system.mem_ctrls.wrQLenPdf::7                       1                       # What write queue length does an incoming req see
system.mem_ctrls.wrQLenPdf::8                       1                       # What write queue length does an incoming req see
system.mem_ctrls.wrQLenPdf::9                       1                       # What write queue length does an incoming req see
system.mem_ctrls.wrQLenPdf::10                      1                       # What write queue length does an incoming req see
system.mem_ctrls.wrQLenPdf::11                      1                       # What write queue length does an incoming req see
system.mem_ctrls.wrQLenPdf::12                      1                       # What write queue length does an incoming req see
system.mem_ctrls.wrQLenPdf::13                      1                       # What write queue length does an incoming req see
system.mem_ctrls.wrQLenPdf::14                      1                       # What write queue length does an incoming req see
system.mem_ctrls.wrQLenPdf::15                      2                       # What write queue length does an incoming req see
system.mem_ctrls.wrQLenPdf::16                      2                       # What write queue length does an incoming req see
system.mem_ctrls.wrQLenPdf::17                      3                       # What write queue length does an incoming req see
system.mem_ctrls.wrQLenPdf::18                      3                       # What write queue length does an incoming req see
system.mem_ctrls.wrQLenPdf::19                      3                       # What write queue length does an incoming req see
system.mem_ctrls.wrQLenPdf::20                      3                       # What write queue length does an incoming req see
system.mem_ctrls.wrQLenPdf::21                      2                       # What write queue length does an incoming req see
system.mem_ctrls.wrQLenPdf::22                      2                       # What write queue length does an incoming req see
system.mem_ctrls.wrQLenPdf::23                      2                       # What write queue length does an incoming req see
system.mem_ctrls.wrQLenPdf::24                      2                       # What write queue length does an incoming req see
system.mem_ctrls.wrQLenPdf::25                      2                       # What write queue length does an incoming req see
system.mem_ctrls.wrQLenPdf::26                      2                       # What write queue length does an incoming req see
system.mem_ctrls.wrQLenPdf::27                      2                       # What write queue length does an incoming req see
system.mem_ctrls.wrQLenPdf::28                      2                       # What write queue length does an incoming req see
system.mem_ctrls.wrQLenPdf::29                      2                       # What write queue length does an incoming req see
system.mem_ctrls.wrQLenPdf::30                      2                       # What write queue length does an incoming req see
system.mem_ctrls.wrQLenPdf::31                      2                       # What write queue length does an incoming req see
system.mem_ctrls.wrQLenPdf::32                      2                       # What write queue length does an incoming req see
system.mem_ctrls.wrQLenPdf::33                      1                       # What write queue length does an incoming req see
system.mem_ctrls.wrQLenPdf::34                      0                       # What write queue length does an incoming req see
system.mem_ctrls.wrQLenPdf::35                      0                       # What write queue length does an incoming req see
system.mem_ctrls.wrQLenPdf::36                      0                       # What write queue length does an incoming req see
system.mem_ctrls.wrQLenPdf::37                      0                       # What write queue length does an incoming req see
system.mem_ctrls.wrQLenPdf::38                      0                       # What write queue length does an incoming req see
system.mem_ctrls.wrQLenPdf::39                      0                       # What write queue length does an incoming req see
system.mem_ctrls.wrQLenPdf::40                      0                       # What write queue length does an incoming req see
system.mem_ctrls.wrQLenPdf::41                      0                       # What write queue length does an incoming req see
system.mem_ctrls.wrQLenPdf::42                      0                       # What write queue length does an incoming req see
system.mem_ctrls.wrQLenPdf::43                      0                       # What write queue length does an incoming req see
system.mem_ctrls.wrQLenPdf::44                      0                       # What write queue length does an incoming req see
system.mem_ctrls.wrQLenPdf::45                      0                       # What write queue length does an incoming req see
system.mem_ctrls.wrQLenPdf::46                      0                       # What write queue length does an incoming req see
system.mem_ctrls.wrQLenPdf::47                      0                       # What write queue length does an incoming req see
system.mem_ctrls.wrQLenPdf::48                      0                       # What write queue length does an incoming req see
system.mem_ctrls.wrQLenPdf::49                      0                       # What write queue length does an incoming req see
system.mem_ctrls.wrQLenPdf::50                      0                       # What write queue length does an incoming req see
system.mem_ctrls.wrQLenPdf::51                      0                       # What write queue length does an incoming req see
system.mem_ctrls.wrQLenPdf::52                      0                       # What write queue length does an incoming req see
system.mem_ctrls.wrQLenPdf::53                      0                       # What write queue length does an incoming req see
system.mem_ctrls.wrQLenPdf::54                      0                       # What write queue length does an incoming req see
system.mem_ctrls.wrQLenPdf::55                      0                       # What write queue length does an incoming req see
system.mem_ctrls.wrQLenPdf::56                      0                       # What write queue length does an incoming req see
system.mem_ctrls.wrQLenPdf::57                      0                       # What write queue length does an incoming req see
system.mem_ctrls.wrQLenPdf::58                      0                       # What write queue length does an incoming req see
system.mem_ctrls.wrQLenPdf::59                      0                       # What write queue length does an incoming req see
system.mem_ctrls.wrQLenPdf::60                      0                       # What write queue length does an incoming req see
system.mem_ctrls.wrQLenPdf::61                      0                       # What write queue length does an incoming req see
system.mem_ctrls.wrQLenPdf::62                      0                       # What write queue length does an incoming req see
system.mem_ctrls.wrQLenPdf::63                      0                       # What write queue length does an incoming req see
system.mem_ctrls.rdPerTurnAround::samples            2                       # Reads before turning the bus around for writes
system.mem_ctrls.rdPerTurnAround::mean            435                       # Reads before turning the bus around for writes
system.mem_ctrls.rdPerTurnAround::gmean    306.176420                       # Reads before turning the bus around for writes
system.mem_ctrls.rdPerTurnAround::stdev    436.991991                       # Reads before turning the bus around for writes
system.mem_ctrls.rdPerTurnAround::96-127            1     50.00%     50.00% # Reads before turning the bus around for writes
system.mem_ctrls.rdPerTurnAround::736-767            1     50.00%    100.00% # Reads before turning the bus around for writes
system.mem_ctrls.rdPerTurnAround::total             2                       # Reads before turning the bus around for writes
system.mem_ctrls.wrPerTurnAround::samples            2                       # Writes before turning the bus around for reads
system.mem_ctrls.wrPerTurnAround::mean      17.500000                       # Writes before turning the bus around for reads
system.mem_ctrls.wrPerTurnAround::gmean     17.435596                       # Writes before turning the bus around for reads
system.mem_ctrls.wrPerTurnAround::stdev      2.121320                       # Writes before turning the bus around for reads
system.mem_ctrls.wrPerTurnAround::16                1     50.00%     50.00% # Writes before turning the bus around for reads
system.mem_ctrls.wrPerTurnAround::19                1     50.00%    100.00% # Writes before turning the bus around for reads
system.mem_ctrls.wrPerTurnAround::total             2                       # Writes before turning the bus around for reads
system.mem_ctrls.bytesReadWrQ                      64                       # Total number of bytes read from write queue
system.mem_ctrls.bytesReadSys                   30400                       # Total read bytes from the system interface side
system.mem_ctrls.bytesWrittenSys                 1792                       # Total written bytes from the system interface side
system.mem_ctrls.avgRdBWSys                    661.69                       # Average system read bandwidth in MiByte/s
system.mem_ctrls.avgWrBWSys                     39.00                       # Average system write bandwidth in MiByte/s
system.mem_ctrls.totGap                      45840780                       # Total gap between requests
system.mem_ctrls.avgGap                      91134.75                       # Average gap between requests
system.mem_ctrls.requestorReadBytes::.cpu.inst        19072                       # Per-requestor bytes read from memory
system.mem_ctrls.requestorReadBytes::.cpu.data        11264                       # Per-requestor bytes read from memory
system.mem_ctrls.requestorWriteBytes::.writebacks         1120                       # Per-requestor bytes write to memory
system.mem_ctrls.requestorReadRate::.cpu.inst 415122987.912133157253                       # Per-requestor bytes read from memory rate (Bytes/sec)
system.mem_ctrls.requestorReadRate::.cpu.data 245173308.297098755836                       # Per-requestor bytes read from memory rate (Bytes/sec)
system.mem_ctrls.requestorWriteRate::.writebacks 24378027.813631977886                       # Per-requestor bytes write to memory rate (Bytes/sec)
system.mem_ctrls.requestorReadAccesses::.cpu.inst          598                       # Per-requestor read serviced memory accesses
system.mem_ctrls.requestorReadAccesses::.cpu.data          352                       # Per-requestor read serviced memory accesses
system.mem_ctrls.requestorWriteAccesses::.writebacks           56                       # Per-requestor write serviced memory accesses
system.mem_ctrls.requestorReadTotalLat::.cpu.inst     22534978                       # Per-requestor read total memory access latency
system.mem_ctrls.requestorReadTotalLat::.cpu.data     14874642                       # Per-requestor read total memory access latency
system.mem_ctrls.requestorWriteTotalLat::.writebacks    208025172                       # Per-requestor write total memory access latency
system.mem_ctrls.requestorReadAvgLat::.cpu.inst     37683.91                       # Per-requestor read average memory access latency
system.mem_ctrls.requestorReadAvgLat::.cpu.data     42257.51                       # Per-requestor read average memory access latency
system.mem_ctrls.requestorWriteAvgLat::.writebacks   3714735.21                       # Per-requestor write average memory access latency
system.mem_ctrls.dram.bytes_read::.cpu.inst        19136                       # Number of bytes read from this memory
system.mem_ctrls.dram.bytes_read::.cpu.data        11264                       # Number of bytes read from this memory
system.mem_ctrls.dram.bytes_read::total         30400                       # Number of bytes read from this memory
system.mem_ctrls.dram.bytes_inst_read::.cpu.inst        19136                       # Number of instructions bytes read from this memory
system.mem_ctrls.dram.bytes_inst_read::total        19136                       # Number of instructions bytes read from this memory
system.mem_ctrls.dram.num_reads::.cpu.inst          299                       # Number of read requests responded to by this memory
system.mem_ctrls.dram.num_reads::.cpu.data          176                       # Number of read requests responded to by this memory
system.mem_ctrls.dram.num_reads::total            475                       # Number of read requests responded to by this memory
system.mem_ctrls.dram.bw_read::.cpu.inst    416516018                       # Total read bandwidth from this memory (bytes/s)
system.mem_ctrls.dram.bw_read::.cpu.data    245173308                       # Total read bandwidth from this memory (bytes/s)
system.mem_ctrls.dram.bw_read::total        661689326                       # Total read bandwidth from this memory (bytes/s)
system.mem_ctrls.dram.bw_inst_read::.cpu.inst    416516018                       # Instruction read bandwidth from this memory (bytes/s)
system.mem_ctrls.dram.bw_inst_read::total    416516018                       # Instruction read bandwidth from this memory (bytes/s)
system.mem_ctrls.dram.bw_total::.cpu.inst    416516018                       # Total bandwidth to/from this memory (bytes/s)
system.mem_ctrls.dram.bw_total::.cpu.data    245173308                       # Total bandwidth to/from this memory (bytes/s)
system.mem_ctrls.dram.bw_total::total       661689326                       # Total bandwidth to/from this memory (bytes/s)
system.mem_ctrls.dram.readBursts                  948                       # Number of DRAM read bursts
system.mem_ctrls.dram.writeBursts                  35                       # Number of DRAM write bursts
system.mem_ctrls.dram.perBankRdBursts::0          136                       # Per bank write bursts
system.mem_ctrls.dram.perBankRdBursts::1          120                       # Per bank write bursts
system.mem_ctrls.dram.perBankRdBursts::2           92                       # Per bank write bursts
system.mem_ctrls.dram.perBankRdBursts::3          108                       # Per bank write bursts
system.mem_ctrls.dram.perBankRdBursts::4           86                       # Per bank write bursts
system.mem_ctrls.dram.perBankRdBursts::5          124                       # Per bank write bursts
system.mem_ctrls.dram.perBankRdBursts::6          128                       # Per bank write bursts
system.mem_ctrls.dram.perBankRdBursts::7          154                       # Per bank write bursts
system.mem_ctrls.dram.perBankWrBursts::0           16                       # Per bank write bursts
system.mem_ctrls.dram.perBankWrBursts::1            8                       # Per bank write bursts
system.mem_ctrls.dram.perBankWrBursts::2            0                       # Per bank write bursts
system.mem_ctrls.dram.perBankWrBursts::3            0                       # Per bank write bursts
system.mem_ctrls.dram.perBankWrBursts::4            0                       # Per bank write bursts
system.mem_ctrls.dram.perBankWrBursts::5            5                       # Per bank write bursts
system.mem_ctrls.dram.perBankWrBursts::6            4                       # Per bank write bursts
system.mem_ctrls.dram.perBankWrBursts::7            2                       # Per bank write bursts
system.mem_ctrls.dram.totQLat                16079620                       # Total ticks spent queuing
system.mem_ctrls.dram.totBusLat               7110000                       # Total ticks spent in databus transfers
system.mem_ctrls.dram.totMemAccLat           37409620                       # Total ticks spent from burst creation until serviced by the DRAM
system.mem_ctrls.dram.avgQLat                16961.62                       # Average queueing delay per DRAM burst
system.mem_ctrls.dram.avgBusLat               7500.00                       # Average bus latency per DRAM burst
system.mem_ctrls.dram.avgMemAccLat           39461.62                       # Average memory access latency per DRAM burst
system.mem_ctrls.dram.readRowHits                 735                       # Number of row buffer hits during reads
system.mem_ctrls.dram.writeRowHits                 26                       # Number of row buffer hits during writes
system.mem_ctrls.dram.readRowHitRate            77.53                       # Row buffer hit rate for reads
system.mem_ctrls.dram.writeRowHitRate           74.29                       # Row buffer hit rate for writes
system.mem_ctrls.dram.bytesPerActivate::samples          216                       # Bytes accessed per row activation
system.mem_ctrls.dram.bytesPerActivate::mean   142.370370                       # Bytes accessed per row activation
system.mem_ctrls.dram.bytesPerActivate::gmean   115.009871                       # Bytes accessed per row activation
system.mem_ctrls.dram.bytesPerActivate::stdev   107.833514                       # Bytes accessed per row activation
system.mem_ctrls.dram.bytesPerActivate::64-127           98     45.37%     45.37% # Bytes accessed per row activation
system.mem_ctrls.dram.bytesPerActivate::128-191           53     24.54%     69.91% # Bytes accessed per row activation
system.mem_ctrls.dram.bytesPerActivate::192-255           35     16.20%     86.11% # Bytes accessed per row activation
system.mem_ctrls.dram.bytesPerActivate::256-319           11      5.09%     91.20% # Bytes accessed per row activation
system.mem_ctrls.dram.bytesPerActivate::320-383            5      2.31%     93.52% # Bytes accessed per row activation
system.mem_ctrls.dram.bytesPerActivate::384-447            3      1.39%     94.91% # Bytes accessed per row activation
system.mem_ctrls.dram.bytesPerActivate::448-511            4      1.85%     96.76% # Bytes accessed per row activation
system.mem_ctrls.dram.bytesPerActivate::512-575            7      3.24%    100.00% # Bytes accessed per row activation
system.mem_ctrls.dram.bytesPerActivate::total          216                       # Bytes accessed per row activation
system.mem_ctrls.dram.bytesRead                 30336                       # Total number of bytes read from DRAM
system.mem_ctrls.dram.bytesWritten               1120                       # Total number of bytes written to DRAM
system.mem_ctrls.dram.avgRdBW              660.296296                       # Average DRAM read bandwidth in MiBytes/s
system.mem_ctrls.dram.avgWrBW               24.378028                       # Average DRAM write bandwidth in MiBytes/s
system.mem_ctrls.dram.peakBW                  4266.00                       # Theoretical peak bandwidth in MiByte/s
system.mem_ctrls.dram.busUtil                   16.05                       # Data bus utilization in percentage
system.mem_ctrls.dram.busUtilRead               15.48                       # Data bus utilization in percentage for reads
system.mem_ctrls.dram.busUtilWrite               0.57                       # Data bus utilization in percentage for writes
system.mem_ctrls.dram.pageHitRate               77.42                       # Row buffer hit rate, read and write combined
system.mem_ctrls.dram.power_state.pwrStateResidencyTicks::UNDEFINED     45943011                       # Cumulative time (in ticks) in various power states
system.mem_ctrls.dram.rank0.actEnergy    675309.348000                       # Energy for activate commands per rank (pJ)
system.mem_ctrls.dram.rank0.preEnergy    231459.379200                       # Energy for precharge commands per rank (pJ)
system.mem_ctrls.dram.rank0.readEnergy   1628346.988800                       # Energy for read commands per rank (pJ)
system.mem_ctrls.dram.rank0.writeEnergy  53972.520000                       # Energy for write commands per rank (pJ)
system.mem_ctrls.dram.rank0.refreshEnergy 305515.980000                       # Energy for refresh commands per rank (pJ)
system.mem_ctrls.dram.rank0.actBackEnergy 1836312.282000                       # Energy for active background per rank (pJ)
system.mem_ctrls.dram.rank0.preBackEnergy 23846.961600                       # Energy for precharge background per rank (pJ)
system.mem_ctrls.dram.rank0.actPowerDownEnergy            0                       # Energy for active power-down per rank (pJ)
system.mem_ctrls.dram.rank0.prePowerDownEnergy            0                       # Energy for precharge power-down per rank (pJ)
system.mem_ctrls.dram.rank0.selfRefreshEnergy            0                       # Energy for self refresh per rank (pJ)
system.mem_ctrls.dram.rank0.totalEnergy  4754763.459600                       # Total energy per rank (pJ)
system.mem_ctrls.dram.rank0.averagePower   103.492639                       # Core power per rank (mW)
system.mem_ctrls.dram.rank0.totalIdleTime            0                       # Total Idle time Per DRAM Rank
system.mem_ctrls.dram.rank0.pwrStateTime::IDLE       219823                       # Time in different power states
system.mem_ctrls.dram.rank0.pwrStateTime::REF      1430000                       # Time in different power states
system.mem_ctrls.dram.rank0.pwrStateTime::SREF            0                       # Time in different power states
system.mem_ctrls.dram.rank0.pwrStateTime::PRE_PDN            0                       # Time in different power states
system.mem_ctrls.dram.rank0.pwrStateTime::ACT     44293188                       # Time in different power states
system.mem_ctrls.dram.rank0.pwrStateTime::ACT_PDN            0                       # Time in different power states
system.mem_ctrls.power_state.pwrStateResidencyTicks::UNDEFINED     45943011                       # Cumulative time (in ticks) in various power states
system.membus.trans_dist::ReadResp                403                       # Transaction distribution
system.membus.trans_dist::WritebackClean           29                       # Transaction distribution
system.membus.trans_dist::ReadExReq                72                       # Transaction distribution
system.membus.trans_dist::ReadExResp               72                       # Transaction distribution
system.membus.trans_dist::ReadCleanReq            299                       # Transaction distribution
system.membus.trans_dist::ReadSharedReq           104                       # Transaction distribution
system.membus.pkt_count_system.cpu.icache.mem_side_port::system.mem_ctrls.port          627                       # Packet count per connected requestor and responder (bytes)
system.membus.pkt_count_system.cpu.dcache.mem_side_port::system.mem_ctrls.port          352                       # Packet count per connected requestor and responder (bytes)
system.membus.pkt_count::total                    979                       # Packet count per connected requestor and responder (bytes)
system.membus.pkt_size_system.cpu.icache.mem_side_port::system.mem_ctrls.port        20992                       # Cumulative packet size per connected requestor and responder (bytes)
system.membus.pkt_size_system.cpu.dcache.mem_side_port::system.mem_ctrls.port        11264                       # Cumulative packet size per connected requestor and responder (bytes)
system.membus.pkt_size::total                   32256                       # Cumulative packet size per connected requestor and responder (bytes)
system.membus.snoops                                0                       # Total snoops (count)
system.membus.snoopTraffic                          0                       # Total snoop traffic (bytes)
system.membus.snoop_fanout::samples               475                       # Request fanout histogram
system.membus.snoop_fanout::mean             0.033684                       # Request fanout histogram
system.membus.snoop_fanout::stdev            0.180605                       # Request fanout histogram
system.membus.snoop_fanout::underflows              0      0.00%      0.00% # Request fanout histogram
system.membus.snoop_fanout::0                     459     96.63%     96.63% # Request fanout histogram
system.membus.snoop_fanout::1                      16      3.37%    100.00% # Request fanout histogram
system.membus.snoop_fanout::2                       0      0.00%    100.00% # Request fanout histogram
system.membus.snoop_fanout::overflows               0      0.00%    100.00% # Request fanout histogram
system.membus.snoop_fanout::min_value               0                       # Request fanout histogram
system.membus.snoop_fanout::max_value               1                       # Request fanout histogram
system.membus.snoop_fanout::total                 475                       # Request fanout histogram
system.membus.power_state.pwrStateResidencyTicks::UNDEFINED     45943011                       # Cumulative time (in ticks) in various power states
system.membus.reqLayer0.occupancy              866523                       # Layer occupancy (ticks)
system.membus.reqLayer0.utilization               1.9                       # Layer utilization (%)
system.membus.respLayer1.occupancy            1503017                       # Layer occupancy (ticks)
system.membus.respLayer1.utilization              3.3                       # Layer utilization (%)
system.membus.respLayer2.occupancy             886017                       # Layer occupancy (ticks)
system.membus.respLayer2.utilization              1.9                       # Layer utilization (%)
system.voltage_domain.voltage                       1                       # Voltage in Volts

---------- End Simulation Statistics   ----------
