
---------- Begin Simulation Statistics ----------
final_tick                                87782839000                       # Number of ticks from beginning of simulation (restored from checkpoints and never reset)
host_inst_rate                                 397587                       # Simulator instruction rate (inst/s)
host_mem_usage                                 661888                       # Number of bytes of host memory used
host_op_rate                                   398368                       # Simulator op (including micro ops) rate (op/s)
host_seconds                                   251.52                       # Real time elapsed on the host
host_tick_rate                              349013439                       # Simulator tick rate (ticks/s)
sim_freq                                 1000000000000                       # Frequency of simulated ticks
sim_insts                                   100000001                       # Number of instructions simulated
sim_ops                                     100196356                       # Number of ops (including micro ops) simulated
sim_seconds                                  0.087783                       # Number of seconds simulated
sim_ticks                                 87782839000                       # Number of ticks simulated
system.cpu.committedInsts                   100000001                       # Number of instructions committed
system.cpu.committedOps                     100196356                       # Number of ops (including micro ops) committed
system.cpu.cpi                               1.755657                       # CPI: cycles per instruction
system.cpu.discardedOps                        189435                       # Number of ops (including micro ops) which were discarded before commit
system.cpu.idleCycles                        42701669                       # Total number of cycles that the object has spent stopped
system.cpu.ipc                               0.569587                       # IPC: instructions per cycle
system.cpu.numCycles                        175565678                       # number of cpu cycles simulated
system.cpu.numFetchSuspends                         0                       # Number of times Execute suspended instruction fetching
system.cpu.numWorkItemsCompleted                    0                       # number of work items this cpu completed
system.cpu.numWorkItemsStarted                      0                       # number of work items this cpu started
system.cpu.op_class_0::No_OpClass                   0      0.00%      0.00% # Class of committed instruction
system.cpu.op_class_0::IntAlu                46526863     46.44%     46.44% # Class of committed instruction
system.cpu.op_class_0::IntMult                  20723      0.02%     46.46% # Class of committed instruction
system.cpu.op_class_0::IntDiv                       0      0.00%     46.46% # Class of committed instruction
system.cpu.op_class_0::FloatAdd                     0      0.00%     46.46% # Class of committed instruction
system.cpu.op_class_0::FloatCmp                     0      0.00%     46.46% # Class of committed instruction
system.cpu.op_class_0::FloatCvt                     0      0.00%     46.46% # Class of committed instruction
system.cpu.op_class_0::FloatMult                    0      0.00%     46.46% # Class of committed instruction
system.cpu.op_class_0::FloatMultAcc                 0      0.00%     46.46% # Class of committed instruction
system.cpu.op_class_0::FloatDiv                     0      0.00%     46.46% # Class of committed instruction
system.cpu.op_class_0::FloatMisc                    0      0.00%     46.46% # Class of committed instruction
system.cpu.op_class_0::FloatSqrt                    0      0.00%     46.46% # Class of committed instruction
system.cpu.op_class_0::SimdAdd                      0      0.00%     46.46% # Class of committed instruction
system.cpu.op_class_0::SimdAddAcc                   0      0.00%     46.46% # Class of committed instruction
system.cpu.op_class_0::SimdAlu                      0      0.00%     46.46% # Class of committed instruction
system.cpu.op_class_0::SimdCmp                      0      0.00%     46.46% # Class of committed instruction
system.cpu.op_class_0::SimdCvt                      0      0.00%     46.46% # Class of committed instruction
system.cpu.op_class_0::SimdMisc                     0      0.00%     46.46% # Class of committed instruction
system.cpu.op_class_0::SimdMult                     0      0.00%     46.46% # Class of committed instruction
system.cpu.op_class_0::SimdMultAcc                  0      0.00%     46.46% # Class of committed instruction
system.cpu.op_class_0::SimdShift                    0      0.00%     46.46% # Class of committed instruction
system.cpu.op_class_0::SimdShiftAcc                 0      0.00%     46.46% # Class of committed instruction
system.cpu.op_class_0::SimdDiv                      0      0.00%     46.46% # Class of committed instruction
system.cpu.op_class_0::SimdSqrt                     0      0.00%     46.46% # Class of committed instruction
system.cpu.op_class_0::SimdFloatAdd                 0      0.00%     46.46% # Class of committed instruction
system.cpu.op_class_0::SimdFloatAlu                 0      0.00%     46.46% # Class of committed instruction
system.cpu.op_class_0::SimdFloatCmp                 0      0.00%     46.46% # Class of committed instruction
system.cpu.op_class_0::SimdFloatCvt                 0      0.00%     46.46% # Class of committed instruction
system.cpu.op_class_0::SimdFloatDiv                 0      0.00%     46.46% # Class of committed instruction
system.cpu.op_class_0::SimdFloatMisc               18      0.00%     46.46% # Class of committed instruction
system.cpu.op_class_0::SimdFloatMult                0      0.00%     46.46% # Class of committed instruction
system.cpu.op_class_0::SimdFloatMultAcc             0      0.00%     46.46% # Class of committed instruction
system.cpu.op_class_0::SimdFloatSqrt                0      0.00%     46.46% # Class of committed instruction
system.cpu.op_class_0::SimdReduceAdd                0      0.00%     46.46% # Class of committed instruction
system.cpu.op_class_0::SimdReduceAlu                0      0.00%     46.46% # Class of committed instruction
system.cpu.op_class_0::SimdReduceCmp                0      0.00%     46.46% # Class of committed instruction
system.cpu.op_class_0::SimdFloatReduceAdd            0      0.00%     46.46% # Class of committed instruction
system.cpu.op_class_0::SimdFloatReduceCmp            0      0.00%     46.46% # Class of committed instruction
system.cpu.op_class_0::SimdAes                      0      0.00%     46.46% # Class of committed instruction
system.cpu.op_class_0::SimdAesMix                   0      0.00%     46.46% # Class of committed instruction
system.cpu.op_class_0::SimdSha1Hash                 0      0.00%     46.46% # Class of committed instruction
system.cpu.op_class_0::SimdSha1Hash2                0      0.00%     46.46% # Class of committed instruction
system.cpu.op_class_0::SimdSha256Hash               0      0.00%     46.46% # Class of committed instruction
system.cpu.op_class_0::SimdSha256Hash2              0      0.00%     46.46% # Class of committed instruction
system.cpu.op_class_0::SimdShaSigma2                0      0.00%     46.46% # Class of committed instruction
system.cpu.op_class_0::SimdShaSigma3                0      0.00%     46.46% # Class of committed instruction
system.cpu.op_class_0::SimdPredAlu                  0      0.00%     46.46% # Class of committed instruction
system.cpu.op_class_0::MemRead               42690537     42.61%     89.06% # Class of committed instruction
system.cpu.op_class_0::MemWrite              10958215     10.94%    100.00% # Class of committed instruction
system.cpu.op_class_0::FloatMemRead                 0      0.00%    100.00% # Class of committed instruction
system.cpu.op_class_0::FloatMemWrite                0      0.00%    100.00% # Class of committed instruction
system.cpu.op_class_0::IprAccess                    0      0.00%    100.00% # Class of committed instruction
system.cpu.op_class_0::InstPrefetch                 0      0.00%    100.00% # Class of committed instruction
system.cpu.op_class_0::total                100196356                       # Class of committed instruction
system.cpu.tickCycles                       132864009                       # Number of cycles that the object actually ticked
system.cpu.workload.numSyscalls                    85                       # Number of system calls
system.membus.snoop_filter.hit_multi_requests            0                       # Number of requests hitting in the snoop filter with multiple (>1) holders of the requested data.
system.membus.snoop_filter.hit_multi_snoops            0                       # Number of snoops hitting in the snoop filter with multiple (>1) holders of the requested data.
system.membus.snoop_filter.hit_single_requests       268913                       # Number of requests hitting in the snoop filter with a single holder of the requested data.
system.membus.snoop_filter.hit_single_snoops            0                       # Number of snoops hitting in the snoop filter with a single holder of the requested data.
system.membus.snoop_filter.tot_requests        546448                       # Total number of requests made to the snoop filter.
system.membus.snoop_filter.tot_snoops               0                       # Total number of snoops made to the snoop filter.
system.tol2bus.snoop_filter.hit_multi_requests           75                       # Number of requests hitting in the snoop filter with multiple (>1) holders of the requested data.
system.tol2bus.snoop_filter.hit_multi_snoops            8                       # Number of snoops hitting in the snoop filter with multiple (>1) holders of the requested data.
system.tol2bus.snoop_filter.hit_single_requests       682089                       # Number of requests hitting in the snoop filter with a single holder of the requested data.
system.tol2bus.snoop_filter.hit_single_snoops          756                       # Number of snoops hitting in the snoop filter with a single holder of the requested data.
system.tol2bus.snoop_filter.tot_requests      1365638                       # Total number of requests made to the snoop filter.
system.tol2bus.snoop_filter.tot_snoops            764                       # Total number of snoops made to the snoop filter.
system.clk_domain.clock                          1000                       # Clock period in ticks
system.cpu.branchPred.lookups                 4485808                       # Number of BP lookups
system.cpu.branchPred.condPredicted           3735497                       # Number of conditional branches predicted
system.cpu.branchPred.condIncorrect             81005                       # Number of conditional branches incorrect
system.cpu.branchPred.BTBLookups              2103812                       # Number of BTB lookups
system.cpu.branchPred.BTBHits                 2101808                       # Number of BTB hits
system.cpu.branchPred.BTBHitPct             99.904744                       # BTB Hit Percentage
system.cpu.branchPred.RASUsed                   65381                       # Number of times the RAS was used to get a target.
system.cpu.branchPred.RASIncorrect                 14                       # Number of incorrect RAS predictions.
system.cpu.branchPred.indirectLookups             693                       # Number of indirect predictor lookups.
system.cpu.branchPred.indirectHits                288                       # Number of indirect target hits.
system.cpu.branchPred.indirectMisses              405                       # Number of indirect misses.
system.cpu.branchPred.indirectMispredicted          171                       # Number of mispredicted indirect branches.
system.cpu.dcache.demand_hits::.cpu.data     51337003                       # number of demand (read+write) hits
system.cpu.dcache.demand_hits::total         51337003                       # number of demand (read+write) hits
system.cpu.dcache.overall_hits::.cpu.data     51337513                       # number of overall hits
system.cpu.dcache.overall_hits::total        51337513                       # number of overall hits
system.cpu.dcache.demand_misses::.cpu.data       736966                       # number of demand (read+write) misses
system.cpu.dcache.demand_misses::total         736966                       # number of demand (read+write) misses
system.cpu.dcache.overall_misses::.cpu.data       744875                       # number of overall misses
system.cpu.dcache.overall_misses::total        744875                       # number of overall misses
system.cpu.dcache.demand_miss_latency::.cpu.data  31094833500                       # number of demand (read+write) miss cycles
system.cpu.dcache.demand_miss_latency::total  31094833500                       # number of demand (read+write) miss cycles
system.cpu.dcache.overall_miss_latency::.cpu.data  31094833500                       # number of overall miss cycles
system.cpu.dcache.overall_miss_latency::total  31094833500                       # number of overall miss cycles
system.cpu.dcache.demand_accesses::.cpu.data     52073969                       # number of demand (read+write) accesses
system.cpu.dcache.demand_accesses::total     52073969                       # number of demand (read+write) accesses
system.cpu.dcache.overall_accesses::.cpu.data     52082388                       # number of overall (read+write) accesses
system.cpu.dcache.overall_accesses::total     52082388                       # number of overall (read+write) accesses
system.cpu.dcache.demand_miss_rate::.cpu.data     0.014152                       # miss rate for demand accesses
system.cpu.dcache.demand_miss_rate::total     0.014152                       # miss rate for demand accesses
system.cpu.dcache.overall_miss_rate::.cpu.data     0.014302                       # miss rate for overall accesses
system.cpu.dcache.overall_miss_rate::total     0.014302                       # miss rate for overall accesses
system.cpu.dcache.demand_avg_miss_latency::.cpu.data 42193.036721                       # average overall miss latency
system.cpu.dcache.demand_avg_miss_latency::total 42193.036721                       # average overall miss latency
system.cpu.dcache.overall_avg_miss_latency::.cpu.data 41745.035744                       # average overall miss latency
system.cpu.dcache.overall_avg_miss_latency::total 41745.035744                       # average overall miss latency
system.cpu.dcache.blocked_cycles::no_mshrs       197692                       # number of cycles access was blocked
system.cpu.dcache.blocked_cycles::no_targets            0                       # number of cycles access was blocked
system.cpu.dcache.blocked::no_mshrs              3260                       # number of cycles access was blocked
system.cpu.dcache.blocked::no_targets               0                       # number of cycles access was blocked
system.cpu.dcache.avg_blocked_cycles::no_mshrs    60.641718                       # average number of cycles each access was blocked
system.cpu.dcache.avg_blocked_cycles::no_targets          nan                       # average number of cycles each access was blocked
system.cpu.dcache.writebacks::.writebacks       587545                       # number of writebacks
system.cpu.dcache.writebacks::total            587545                       # number of writebacks
system.cpu.dcache.demand_mshr_hits::.cpu.data        62093                       # number of demand (read+write) MSHR hits
system.cpu.dcache.demand_mshr_hits::total        62093                       # number of demand (read+write) MSHR hits
system.cpu.dcache.overall_mshr_hits::.cpu.data        62093                       # number of overall MSHR hits
system.cpu.dcache.overall_mshr_hits::total        62093                       # number of overall MSHR hits
system.cpu.dcache.demand_mshr_misses::.cpu.data       674873                       # number of demand (read+write) MSHR misses
system.cpu.dcache.demand_mshr_misses::total       674873                       # number of demand (read+write) MSHR misses
system.cpu.dcache.overall_mshr_misses::.cpu.data       682778                       # number of overall MSHR misses
system.cpu.dcache.overall_mshr_misses::total       682778                       # number of overall MSHR misses
system.cpu.dcache.demand_mshr_miss_latency::.cpu.data  28786550500                       # number of demand (read+write) MSHR miss cycles
system.cpu.dcache.demand_mshr_miss_latency::total  28786550500                       # number of demand (read+write) MSHR miss cycles
system.cpu.dcache.overall_mshr_miss_latency::.cpu.data  29392299499                       # number of overall MSHR miss cycles
system.cpu.dcache.overall_mshr_miss_latency::total  29392299499                       # number of overall MSHR miss cycles
system.cpu.dcache.demand_mshr_miss_rate::.cpu.data     0.012960                       # mshr miss rate for demand accesses
system.cpu.dcache.demand_mshr_miss_rate::total     0.012960                       # mshr miss rate for demand accesses
system.cpu.dcache.overall_mshr_miss_rate::.cpu.data     0.013110                       # mshr miss rate for overall accesses
system.cpu.dcache.overall_mshr_miss_rate::total     0.013110                       # mshr miss rate for overall accesses
system.cpu.dcache.demand_avg_mshr_miss_latency::.cpu.data 42654.766897                       # average overall mshr miss latency
system.cpu.dcache.demand_avg_mshr_miss_latency::total 42654.766897                       # average overall mshr miss latency
system.cpu.dcache.overall_avg_mshr_miss_latency::.cpu.data 43048.105679                       # average overall mshr miss latency
system.cpu.dcache.overall_avg_mshr_miss_latency::total 43048.105679                       # average overall mshr miss latency
system.cpu.dcache.replacements                 681754                       # number of replacements
system.cpu.dcache.ReadReq_hits::.cpu.data     40736772                       # number of ReadReq hits
system.cpu.dcache.ReadReq_hits::total        40736772                       # number of ReadReq hits
system.cpu.dcache.ReadReq_misses::.cpu.data       388115                       # number of ReadReq misses
system.cpu.dcache.ReadReq_misses::total        388115                       # number of ReadReq misses
system.cpu.dcache.ReadReq_miss_latency::.cpu.data  12414585500                       # number of ReadReq miss cycles
system.cpu.dcache.ReadReq_miss_latency::total  12414585500                       # number of ReadReq miss cycles
system.cpu.dcache.ReadReq_accesses::.cpu.data     41124887                       # number of ReadReq accesses(hits+misses)
system.cpu.dcache.ReadReq_accesses::total     41124887                       # number of ReadReq accesses(hits+misses)
system.cpu.dcache.ReadReq_miss_rate::.cpu.data     0.009437                       # miss rate for ReadReq accesses
system.cpu.dcache.ReadReq_miss_rate::total     0.009437                       # miss rate for ReadReq accesses
system.cpu.dcache.ReadReq_avg_miss_latency::.cpu.data 31986.873736                       # average ReadReq miss latency
system.cpu.dcache.ReadReq_avg_miss_latency::total 31986.873736                       # average ReadReq miss latency
system.cpu.dcache.ReadReq_mshr_hits::.cpu.data           11                       # number of ReadReq MSHR hits
system.cpu.dcache.ReadReq_mshr_hits::total           11                       # number of ReadReq MSHR hits
system.cpu.dcache.ReadReq_mshr_misses::.cpu.data       388104                       # number of ReadReq MSHR misses
system.cpu.dcache.ReadReq_mshr_misses::total       388104                       # number of ReadReq MSHR misses
system.cpu.dcache.ReadReq_mshr_miss_latency::.cpu.data  12025787000                       # number of ReadReq MSHR miss cycles
system.cpu.dcache.ReadReq_mshr_miss_latency::total  12025787000                       # number of ReadReq MSHR miss cycles
system.cpu.dcache.ReadReq_mshr_miss_rate::.cpu.data     0.009437                       # mshr miss rate for ReadReq accesses
system.cpu.dcache.ReadReq_mshr_miss_rate::total     0.009437                       # mshr miss rate for ReadReq accesses
system.cpu.dcache.ReadReq_avg_mshr_miss_latency::.cpu.data 30985.990868                       # average ReadReq mshr miss latency
system.cpu.dcache.ReadReq_avg_mshr_miss_latency::total 30985.990868                       # average ReadReq mshr miss latency
system.cpu.dcache.WriteReq_hits::.cpu.data     10600231                       # number of WriteReq hits
system.cpu.dcache.WriteReq_hits::total       10600231                       # number of WriteReq hits
system.cpu.dcache.WriteReq_misses::.cpu.data       348851                       # number of WriteReq misses
system.cpu.dcache.WriteReq_misses::total       348851                       # number of WriteReq misses
system.cpu.dcache.WriteReq_miss_latency::.cpu.data  18680248000                       # number of WriteReq miss cycles
system.cpu.dcache.WriteReq_miss_latency::total  18680248000                       # number of WriteReq miss cycles
system.cpu.dcache.WriteReq_accesses::.cpu.data     10949082                       # number of WriteReq accesses(hits+misses)
system.cpu.dcache.WriteReq_accesses::total     10949082                       # number of WriteReq accesses(hits+misses)
system.cpu.dcache.WriteReq_miss_rate::.cpu.data     0.031861                       # miss rate for WriteReq accesses
system.cpu.dcache.WriteReq_miss_rate::total     0.031861                       # miss rate for WriteReq accesses
system.cpu.dcache.WriteReq_avg_miss_latency::.cpu.data 53547.927339                       # average WriteReq miss latency
system.cpu.dcache.WriteReq_avg_miss_latency::total 53547.927339                       # average WriteReq miss latency
system.cpu.dcache.WriteReq_mshr_hits::.cpu.data        62082                       # number of WriteReq MSHR hits
system.cpu.dcache.WriteReq_mshr_hits::total        62082                       # number of WriteReq MSHR hits
system.cpu.dcache.WriteReq_mshr_misses::.cpu.data       286769                       # number of WriteReq MSHR misses
system.cpu.dcache.WriteReq_mshr_misses::total       286769                       # number of WriteReq MSHR misses
system.cpu.dcache.WriteReq_mshr_miss_latency::.cpu.data  16760763500                       # number of WriteReq MSHR miss cycles
system.cpu.dcache.WriteReq_mshr_miss_latency::total  16760763500                       # number of WriteReq MSHR miss cycles
system.cpu.dcache.WriteReq_mshr_miss_rate::.cpu.data     0.026191                       # mshr miss rate for WriteReq accesses
system.cpu.dcache.WriteReq_mshr_miss_rate::total     0.026191                       # mshr miss rate for WriteReq accesses
system.cpu.dcache.WriteReq_avg_mshr_miss_latency::.cpu.data 58446.915462                       # average WriteReq mshr miss latency
system.cpu.dcache.WriteReq_avg_mshr_miss_latency::total 58446.915462                       # average WriteReq mshr miss latency
system.cpu.dcache.SoftPFReq_hits::.cpu.data          510                       # number of SoftPFReq hits
system.cpu.dcache.SoftPFReq_hits::total           510                       # number of SoftPFReq hits
system.cpu.dcache.SoftPFReq_misses::.cpu.data         7909                       # number of SoftPFReq misses
system.cpu.dcache.SoftPFReq_misses::total         7909                       # number of SoftPFReq misses
system.cpu.dcache.SoftPFReq_accesses::.cpu.data         8419                       # number of SoftPFReq accesses(hits+misses)
system.cpu.dcache.SoftPFReq_accesses::total         8419                       # number of SoftPFReq accesses(hits+misses)
system.cpu.dcache.SoftPFReq_miss_rate::.cpu.data     0.939423                       # miss rate for SoftPFReq accesses
system.cpu.dcache.SoftPFReq_miss_rate::total     0.939423                       # miss rate for SoftPFReq accesses
system.cpu.dcache.SoftPFReq_mshr_misses::.cpu.data         7905                       # number of SoftPFReq MSHR misses
system.cpu.dcache.SoftPFReq_mshr_misses::total         7905                       # number of SoftPFReq MSHR misses
system.cpu.dcache.SoftPFReq_mshr_miss_latency::.cpu.data    605748999                       # number of SoftPFReq MSHR miss cycles
system.cpu.dcache.SoftPFReq_mshr_miss_latency::total    605748999                       # number of SoftPFReq MSHR miss cycles
system.cpu.dcache.SoftPFReq_mshr_miss_rate::.cpu.data     0.938948                       # mshr miss rate for SoftPFReq accesses
system.cpu.dcache.SoftPFReq_mshr_miss_rate::total     0.938948                       # mshr miss rate for SoftPFReq accesses
system.cpu.dcache.SoftPFReq_avg_mshr_miss_latency::.cpu.data 76628.589374                       # average SoftPFReq mshr miss latency
system.cpu.dcache.SoftPFReq_avg_mshr_miss_latency::total 76628.589374                       # average SoftPFReq mshr miss latency
system.cpu.dcache.LoadLockedReq_hits::.cpu.data           38                       # number of LoadLockedReq hits
system.cpu.dcache.LoadLockedReq_hits::total           38                       # number of LoadLockedReq hits
system.cpu.dcache.LoadLockedReq_accesses::.cpu.data           38                       # number of LoadLockedReq accesses(hits+misses)
system.cpu.dcache.LoadLockedReq_accesses::total           38                       # number of LoadLockedReq accesses(hits+misses)
system.cpu.dcache.StoreCondReq_hits::.cpu.data           38                       # number of StoreCondReq hits
system.cpu.dcache.StoreCondReq_hits::total           38                       # number of StoreCondReq hits
system.cpu.dcache.StoreCondReq_accesses::.cpu.data           38                       # number of StoreCondReq accesses(hits+misses)
system.cpu.dcache.StoreCondReq_accesses::total           38                       # number of StoreCondReq accesses(hits+misses)
system.cpu.dcache.power_state.pwrStateResidencyTicks::UNDEFINED  87782839000                       # Cumulative time (in ticks) in various power states
system.cpu.dcache.tags.tagsinuse          1008.513916                       # Cycle average of tags in use
system.cpu.dcache.tags.total_refs            52020367                       # Total number of references to valid blocks.
system.cpu.dcache.tags.sampled_refs            682778                       # Sample count of references to valid blocks.
system.cpu.dcache.tags.avg_refs             76.189284                       # Average number of references to valid blocks.
system.cpu.dcache.tags.warmup_cycle            176500                       # Cycle when the warmup percentage was hit.
system.cpu.dcache.tags.occ_blocks::.cpu.data  1008.513916                       # Average occupied blocks per requestor
system.cpu.dcache.tags.occ_percent::.cpu.data     0.984877                       # Average percentage of cache occupancy
system.cpu.dcache.tags.occ_percent::total     0.984877                       # Average percentage of cache occupancy
system.cpu.dcache.tags.occ_task_id_blocks::1024         1024                       # Occupied blocks per task id
system.cpu.dcache.tags.age_task_id_blocks_1024::0           91                       # Occupied blocks per task id
system.cpu.dcache.tags.age_task_id_blocks_1024::1          308                       # Occupied blocks per task id
system.cpu.dcache.tags.age_task_id_blocks_1024::2          621                       # Occupied blocks per task id
system.cpu.dcache.tags.age_task_id_blocks_1024::3            4                       # Occupied blocks per task id
system.cpu.dcache.tags.occ_task_id_percent::1024            1                       # Percentage of cache occupancy per task id
system.cpu.dcache.tags.tag_accesses         104847706                       # Number of tag accesses
system.cpu.dcache.tags.data_accesses        104847706                       # Number of data accesses
system.cpu.dcache.tags.power_state.pwrStateResidencyTicks::UNDEFINED  87782839000                       # Cumulative time (in ticks) in various power states
system.cpu.dtb.instHits                             0                       # ITB inst hits
system.cpu.dtb.instMisses                           0                       # ITB inst misses
system.cpu.dtb.readHits                             0                       # DTB read hits
system.cpu.dtb.readMisses                           0                       # DTB read misses
system.cpu.dtb.writeHits                            0                       # DTB write hits
system.cpu.dtb.writeMisses                          0                       # DTB write misses
system.cpu.dtb.inserts                              0                       # Number of times an entry is inserted into the TLB
system.cpu.dtb.flushTlb                             0                       # Number of times complete TLB was flushed
system.cpu.dtb.flushTlbMva                          0                       # Number of times TLB was flushed by MVA
system.cpu.dtb.flushTlbMvaAsid                      0                       # Number of times TLB was flushed by MVA & ASID
system.cpu.dtb.flushTlbAsid                         0                       # Number of times TLB was flushed by ASID
system.cpu.dtb.flushedEntries                       0                       # Number of entries that have been flushed from TLB
system.cpu.dtb.alignFaults                          0                       # Number of TLB faults due to alignment restrictions
system.cpu.dtb.prefetchFaults                       0                       # Number of TLB faults due to prefetch
system.cpu.dtb.domainFaults                         0                       # Number of TLB faults due to domain restrictions
system.cpu.dtb.permsFaults                          0                       # Number of TLB faults due to permissions restrictions
system.cpu.dtb.readAccesses                         0                       # DTB read accesses
system.cpu.dtb.writeAccesses                        0                       # DTB write accesses
system.cpu.dtb.instAccesses                         0                       # ITB inst accesses
system.cpu.dtb.hits                                 0                       # Total TLB (inst and data) hits
system.cpu.dtb.misses                               0                       # Total TLB (inst and data) misses
system.cpu.dtb.accesses                             0                       # Total TLB (inst and data) accesses
system.cpu.dtb.stage2_mmu.stage2_tlb.instHits            0                       # ITB inst hits
system.cpu.dtb.stage2_mmu.stage2_tlb.instMisses            0                       # ITB inst misses
system.cpu.dtb.stage2_mmu.stage2_tlb.readHits            0                       # DTB read hits
system.cpu.dtb.stage2_mmu.stage2_tlb.readMisses            0                       # DTB read misses
system.cpu.dtb.stage2_mmu.stage2_tlb.writeHits            0                       # DTB write hits
system.cpu.dtb.stage2_mmu.stage2_tlb.writeMisses            0                       # DTB write misses
system.cpu.dtb.stage2_mmu.stage2_tlb.inserts            0                       # Number of times an entry is inserted into the TLB
system.cpu.dtb.stage2_mmu.stage2_tlb.flushTlb            0                       # Number of times complete TLB was flushed
system.cpu.dtb.stage2_mmu.stage2_tlb.flushTlbMva            0                       # Number of times TLB was flushed by MVA
system.cpu.dtb.stage2_mmu.stage2_tlb.flushTlbMvaAsid            0                       # Number of times TLB was flushed by MVA & ASID
system.cpu.dtb.stage2_mmu.stage2_tlb.flushTlbAsid            0                       # Number of times TLB was flushed by ASID
system.cpu.dtb.stage2_mmu.stage2_tlb.flushedEntries            0                       # Number of entries that have been flushed from TLB
system.cpu.dtb.stage2_mmu.stage2_tlb.alignFaults            0                       # Number of TLB faults due to alignment restrictions
system.cpu.dtb.stage2_mmu.stage2_tlb.prefetchFaults            0                       # Number of TLB faults due to prefetch
system.cpu.dtb.stage2_mmu.stage2_tlb.domainFaults            0                       # Number of TLB faults due to domain restrictions
system.cpu.dtb.stage2_mmu.stage2_tlb.permsFaults            0                       # Number of TLB faults due to permissions restrictions
system.cpu.dtb.stage2_mmu.stage2_tlb.readAccesses            0                       # DTB read accesses
system.cpu.dtb.stage2_mmu.stage2_tlb.writeAccesses            0                       # DTB write accesses
system.cpu.dtb.stage2_mmu.stage2_tlb.instAccesses            0                       # ITB inst accesses
system.cpu.dtb.stage2_mmu.stage2_tlb.hits            0                       # Total TLB (inst and data) hits
system.cpu.dtb.stage2_mmu.stage2_tlb.misses            0                       # Total TLB (inst and data) misses
system.cpu.dtb.stage2_mmu.stage2_tlb.accesses            0                       # Total TLB (inst and data) accesses
system.cpu.dtb.stage2_mmu.stage2_tlb.walker.walks            0                       # Table walker walks requested
system.cpu.dtb.stage2_mmu.stage2_tlb.walker.requestOrigin_Requested::Data            0                       # Table walker requests started/completed, data/inst
system.cpu.dtb.stage2_mmu.stage2_tlb.walker.requestOrigin_Requested::Inst            0                       # Table walker requests started/completed, data/inst
system.cpu.dtb.stage2_mmu.stage2_tlb.walker.requestOrigin_Requested::total            0                       # Table walker requests started/completed, data/inst
system.cpu.dtb.stage2_mmu.stage2_tlb.walker.requestOrigin_Completed::Data            0                       # Table walker requests started/completed, data/inst
system.cpu.dtb.stage2_mmu.stage2_tlb.walker.requestOrigin_Completed::Inst            0                       # Table walker requests started/completed, data/inst
system.cpu.dtb.stage2_mmu.stage2_tlb.walker.requestOrigin_Completed::total            0                       # Table walker requests started/completed, data/inst
system.cpu.dtb.stage2_mmu.stage2_tlb.walker.requestOrigin::total            0                       # Table walker requests started/completed, data/inst
system.cpu.dtb.stage2_mmu.stage2_tlb.walker.power_state.pwrStateResidencyTicks::UNDEFINED  87782839000                       # Cumulative time (in ticks) in various power states
system.cpu.dtb.walker.walks                         0                       # Table walker walks requested
system.cpu.dtb.walker.requestOrigin_Requested::Data            0                       # Table walker requests started/completed, data/inst
system.cpu.dtb.walker.requestOrigin_Requested::Inst            0                       # Table walker requests started/completed, data/inst
system.cpu.dtb.walker.requestOrigin_Requested::total            0                       # Table walker requests started/completed, data/inst
system.cpu.dtb.walker.requestOrigin_Completed::Data            0                       # Table walker requests started/completed, data/inst
system.cpu.dtb.walker.requestOrigin_Completed::Inst            0                       # Table walker requests started/completed, data/inst
system.cpu.dtb.walker.requestOrigin_Completed::total            0                       # Table walker requests started/completed, data/inst
system.cpu.dtb.walker.requestOrigin::total            0                       # Table walker requests started/completed, data/inst
system.cpu.dtb.walker.power_state.pwrStateResidencyTicks::UNDEFINED  87782839000                       # Cumulative time (in ticks) in various power states
system.cpu.fetch2.intInstructions            42685834                       # Number of integer instructions successfully decoded
system.cpu.fetch2.fpInstructions                    0                       # Number of floating point instructions successfully decoded
system.cpu.fetch2.vecInstructions                   0                       # Number of SIMD instructions successfully decoded
system.cpu.fetch2.loadInstructions           43475027                       # Number of memory load instructions successfully decoded
system.cpu.fetch2.storeInstructions          11024888                       # Number of memory store instructions successfully decoded
system.cpu.fetch2.amoInstructions                   0                       # Number of memory atomic instructions successfully decoded
system.cpu.icache.demand_hits::.cpu.inst     10277971                       # number of demand (read+write) hits
system.cpu.icache.demand_hits::total         10277971                       # number of demand (read+write) hits
system.cpu.icache.overall_hits::.cpu.inst     10277971                       # number of overall hits
system.cpu.icache.overall_hits::total        10277971                       # number of overall hits
system.cpu.icache.demand_misses::.cpu.inst          773                       # number of demand (read+write) misses
system.cpu.icache.demand_misses::total            773                       # number of demand (read+write) misses
system.cpu.icache.overall_misses::.cpu.inst          773                       # number of overall misses
system.cpu.icache.overall_misses::total           773                       # number of overall misses
system.cpu.icache.demand_miss_latency::.cpu.inst     56527000                       # number of demand (read+write) miss cycles
system.cpu.icache.demand_miss_latency::total     56527000                       # number of demand (read+write) miss cycles
system.cpu.icache.overall_miss_latency::.cpu.inst     56527000                       # number of overall miss cycles
system.cpu.icache.overall_miss_latency::total     56527000                       # number of overall miss cycles
system.cpu.icache.demand_accesses::.cpu.inst     10278744                       # number of demand (read+write) accesses
system.cpu.icache.demand_accesses::total     10278744                       # number of demand (read+write) accesses
system.cpu.icache.overall_accesses::.cpu.inst     10278744                       # number of overall (read+write) accesses
system.cpu.icache.overall_accesses::total     10278744                       # number of overall (read+write) accesses
system.cpu.icache.demand_miss_rate::.cpu.inst     0.000075                       # miss rate for demand accesses
system.cpu.icache.demand_miss_rate::total     0.000075                       # miss rate for demand accesses
system.cpu.icache.overall_miss_rate::.cpu.inst     0.000075                       # miss rate for overall accesses
system.cpu.icache.overall_miss_rate::total     0.000075                       # miss rate for overall accesses
system.cpu.icache.demand_avg_miss_latency::.cpu.inst 73126.778784                       # average overall miss latency
system.cpu.icache.demand_avg_miss_latency::total 73126.778784                       # average overall miss latency
system.cpu.icache.overall_avg_miss_latency::.cpu.inst 73126.778784                       # average overall miss latency
system.cpu.icache.overall_avg_miss_latency::total 73126.778784                       # average overall miss latency
system.cpu.icache.blocked_cycles::no_mshrs            0                       # number of cycles access was blocked
system.cpu.icache.blocked_cycles::no_targets            0                       # number of cycles access was blocked
system.cpu.icache.blocked::no_mshrs                 0                       # number of cycles access was blocked
system.cpu.icache.blocked::no_targets               0                       # number of cycles access was blocked
system.cpu.icache.avg_blocked_cycles::no_mshrs          nan                       # average number of cycles each access was blocked
system.cpu.icache.avg_blocked_cycles::no_targets          nan                       # average number of cycles each access was blocked
system.cpu.icache.writebacks::.writebacks          333                       # number of writebacks
system.cpu.icache.writebacks::total               333                       # number of writebacks
system.cpu.icache.demand_mshr_misses::.cpu.inst          773                       # number of demand (read+write) MSHR misses
system.cpu.icache.demand_mshr_misses::total          773                       # number of demand (read+write) MSHR misses
system.cpu.icache.overall_mshr_misses::.cpu.inst          773                       # number of overall MSHR misses
system.cpu.icache.overall_mshr_misses::total          773                       # number of overall MSHR misses
system.cpu.icache.demand_mshr_miss_latency::.cpu.inst     55754000                       # number of demand (read+write) MSHR miss cycles
system.cpu.icache.demand_mshr_miss_latency::total     55754000                       # number of demand (read+write) MSHR miss cycles
system.cpu.icache.overall_mshr_miss_latency::.cpu.inst     55754000                       # number of overall MSHR miss cycles
system.cpu.icache.overall_mshr_miss_latency::total     55754000                       # number of overall MSHR miss cycles
system.cpu.icache.demand_mshr_miss_rate::.cpu.inst     0.000075                       # mshr miss rate for demand accesses
system.cpu.icache.demand_mshr_miss_rate::total     0.000075                       # mshr miss rate for demand accesses
system.cpu.icache.overall_mshr_miss_rate::.cpu.inst     0.000075                       # mshr miss rate for overall accesses
system.cpu.icache.overall_mshr_miss_rate::total     0.000075                       # mshr miss rate for overall accesses
system.cpu.icache.demand_avg_mshr_miss_latency::.cpu.inst 72126.778784                       # average overall mshr miss latency
system.cpu.icache.demand_avg_mshr_miss_latency::total 72126.778784                       # average overall mshr miss latency
system.cpu.icache.overall_avg_mshr_miss_latency::.cpu.inst 72126.778784                       # average overall mshr miss latency
system.cpu.icache.overall_avg_mshr_miss_latency::total 72126.778784                       # average overall mshr miss latency
system.cpu.icache.replacements                    333                       # number of replacements
system.cpu.icache.ReadReq_hits::.cpu.inst     10277971                       # number of ReadReq hits
system.cpu.icache.ReadReq_hits::total        10277971                       # number of ReadReq hits
system.cpu.icache.ReadReq_misses::.cpu.inst          773                       # number of ReadReq misses
system.cpu.icache.ReadReq_misses::total           773                       # number of ReadReq misses
system.cpu.icache.ReadReq_miss_latency::.cpu.inst     56527000                       # number of ReadReq miss cycles
system.cpu.icache.ReadReq_miss_latency::total     56527000                       # number of ReadReq miss cycles
system.cpu.icache.ReadReq_accesses::.cpu.inst     10278744                       # number of ReadReq accesses(hits+misses)
system.cpu.icache.ReadReq_accesses::total     10278744                       # number of ReadReq accesses(hits+misses)
system.cpu.icache.ReadReq_miss_rate::.cpu.inst     0.000075                       # miss rate for ReadReq accesses
system.cpu.icache.ReadReq_miss_rate::total     0.000075                       # miss rate for ReadReq accesses
system.cpu.icache.ReadReq_avg_miss_latency::.cpu.inst 73126.778784                       # average ReadReq miss latency
system.cpu.icache.ReadReq_avg_miss_latency::total 73126.778784                       # average ReadReq miss latency
system.cpu.icache.ReadReq_mshr_misses::.cpu.inst          773                       # number of ReadReq MSHR misses
system.cpu.icache.ReadReq_mshr_misses::total          773                       # number of ReadReq MSHR misses
system.cpu.icache.ReadReq_mshr_miss_latency::.cpu.inst     55754000                       # number of ReadReq MSHR miss cycles
system.cpu.icache.ReadReq_mshr_miss_latency::total     55754000                       # number of ReadReq MSHR miss cycles
system.cpu.icache.ReadReq_mshr_miss_rate::.cpu.inst     0.000075                       # mshr miss rate for ReadReq accesses
system.cpu.icache.ReadReq_mshr_miss_rate::total     0.000075                       # mshr miss rate for ReadReq accesses
system.cpu.icache.ReadReq_avg_mshr_miss_latency::.cpu.inst 72126.778784                       # average ReadReq mshr miss latency
system.cpu.icache.ReadReq_avg_mshr_miss_latency::total 72126.778784                       # average ReadReq mshr miss latency
system.cpu.icache.power_state.pwrStateResidencyTicks::UNDEFINED  87782839000                       # Cumulative time (in ticks) in various power states
system.cpu.icache.tags.tagsinuse           357.025004                       # Cycle average of tags in use
system.cpu.icache.tags.total_refs            10278744                       # Total number of references to valid blocks.
system.cpu.icache.tags.sampled_refs               773                       # Sample count of references to valid blocks.
system.cpu.icache.tags.avg_refs          13297.210867                       # Average number of references to valid blocks.
system.cpu.icache.tags.warmup_cycle             87500                       # Cycle when the warmup percentage was hit.
system.cpu.icache.tags.occ_blocks::.cpu.inst   357.025004                       # Average occupied blocks per requestor
system.cpu.icache.tags.occ_percent::.cpu.inst     0.697314                       # Average percentage of cache occupancy
system.cpu.icache.tags.occ_percent::total     0.697314                       # Average percentage of cache occupancy
system.cpu.icache.tags.occ_task_id_blocks::1024          440                       # Occupied blocks per task id
system.cpu.icache.tags.age_task_id_blocks_1024::3          107                       # Occupied blocks per task id
system.cpu.icache.tags.age_task_id_blocks_1024::4          333                       # Occupied blocks per task id
system.cpu.icache.tags.occ_task_id_percent::1024     0.859375                       # Percentage of cache occupancy per task id
system.cpu.icache.tags.tag_accesses          20558261                       # Number of tag accesses
system.cpu.icache.tags.data_accesses         20558261                       # Number of data accesses
system.cpu.icache.tags.power_state.pwrStateResidencyTicks::UNDEFINED  87782839000                       # Cumulative time (in ticks) in various power states
system.cpu.itb.instHits                             0                       # ITB inst hits
system.cpu.itb.instMisses                           0                       # ITB inst misses
system.cpu.itb.readHits                             0                       # DTB read hits
system.cpu.itb.readMisses                           0                       # DTB read misses
system.cpu.itb.writeHits                            0                       # DTB write hits
system.cpu.itb.writeMisses                          0                       # DTB write misses
system.cpu.itb.inserts                              0                       # Number of times an entry is inserted into the TLB
system.cpu.itb.flushTlb                             0                       # Number of times complete TLB was flushed
system.cpu.itb.flushTlbMva                          0                       # Number of times TLB was flushed by MVA
system.cpu.itb.flushTlbMvaAsid                      0                       # Number of times TLB was flushed by MVA & ASID
system.cpu.itb.flushTlbAsid                         0                       # Number of times TLB was flushed by ASID
system.cpu.itb.flushedEntries                       0                       # Number of entries that have been flushed from TLB
system.cpu.itb.alignFaults                          0                       # Number of TLB faults due to alignment restrictions
system.cpu.itb.prefetchFaults                       0                       # Number of TLB faults due to prefetch
system.cpu.itb.domainFaults                         0                       # Number of TLB faults due to domain restrictions
system.cpu.itb.permsFaults                          0                       # Number of TLB faults due to permissions restrictions
system.cpu.itb.readAccesses                         0                       # DTB read accesses
system.cpu.itb.writeAccesses                        0                       # DTB write accesses
system.cpu.itb.instAccesses                         0                       # ITB inst accesses
system.cpu.itb.hits                                 0                       # Total TLB (inst and data) hits
system.cpu.itb.misses                               0                       # Total TLB (inst and data) misses
system.cpu.itb.accesses                             0                       # Total TLB (inst and data) accesses
system.cpu.itb.stage2_mmu.stage2_tlb.instHits            0                       # ITB inst hits
system.cpu.itb.stage2_mmu.stage2_tlb.instMisses            0                       # ITB inst misses
system.cpu.itb.stage2_mmu.stage2_tlb.readHits            0                       # DTB read hits
system.cpu.itb.stage2_mmu.stage2_tlb.readMisses            0                       # DTB read misses
system.cpu.itb.stage2_mmu.stage2_tlb.writeHits            0                       # DTB write hits
system.cpu.itb.stage2_mmu.stage2_tlb.writeMisses            0                       # DTB write misses
system.cpu.itb.stage2_mmu.stage2_tlb.inserts            0                       # Number of times an entry is inserted into the TLB
system.cpu.itb.stage2_mmu.stage2_tlb.flushTlb            0                       # Number of times complete TLB was flushed
system.cpu.itb.stage2_mmu.stage2_tlb.flushTlbMva            0                       # Number of times TLB was flushed by MVA
system.cpu.itb.stage2_mmu.stage2_tlb.flushTlbMvaAsid            0                       # Number of times TLB was flushed by MVA & ASID
system.cpu.itb.stage2_mmu.stage2_tlb.flushTlbAsid            0                       # Number of times TLB was flushed by ASID
system.cpu.itb.stage2_mmu.stage2_tlb.flushedEntries            0                       # Number of entries that have been flushed from TLB
system.cpu.itb.stage2_mmu.stage2_tlb.alignFaults            0                       # Number of TLB faults due to alignment restrictions
system.cpu.itb.stage2_mmu.stage2_tlb.prefetchFaults            0                       # Number of TLB faults due to prefetch
system.cpu.itb.stage2_mmu.stage2_tlb.domainFaults            0                       # Number of TLB faults due to domain restrictions
system.cpu.itb.stage2_mmu.stage2_tlb.permsFaults            0                       # Number of TLB faults due to permissions restrictions
system.cpu.itb.stage2_mmu.stage2_tlb.readAccesses            0                       # DTB read accesses
system.cpu.itb.stage2_mmu.stage2_tlb.writeAccesses            0                       # DTB write accesses
system.cpu.itb.stage2_mmu.stage2_tlb.instAccesses            0                       # ITB inst accesses
system.cpu.itb.stage2_mmu.stage2_tlb.hits            0                       # Total TLB (inst and data) hits
system.cpu.itb.stage2_mmu.stage2_tlb.misses            0                       # Total TLB (inst and data) misses
system.cpu.itb.stage2_mmu.stage2_tlb.accesses            0                       # Total TLB (inst and data) accesses
system.cpu.itb.stage2_mmu.stage2_tlb.walker.walks            0                       # Table walker walks requested
system.cpu.itb.stage2_mmu.stage2_tlb.walker.requestOrigin_Requested::Data            0                       # Table walker requests started/completed, data/inst
system.cpu.itb.stage2_mmu.stage2_tlb.walker.requestOrigin_Requested::Inst            0                       # Table walker requests started/completed, data/inst
system.cpu.itb.stage2_mmu.stage2_tlb.walker.requestOrigin_Requested::total            0                       # Table walker requests started/completed, data/inst
system.cpu.itb.stage2_mmu.stage2_tlb.walker.requestOrigin_Completed::Data            0                       # Table walker requests started/completed, data/inst
system.cpu.itb.stage2_mmu.stage2_tlb.walker.requestOrigin_Completed::Inst            0                       # Table walker requests started/completed, data/inst
system.cpu.itb.stage2_mmu.stage2_tlb.walker.requestOrigin_Completed::total            0                       # Table walker requests started/completed, data/inst
system.cpu.itb.stage2_mmu.stage2_tlb.walker.requestOrigin::total            0                       # Table walker requests started/completed, data/inst
system.cpu.itb.stage2_mmu.stage2_tlb.walker.power_state.pwrStateResidencyTicks::UNDEFINED  87782839000                       # Cumulative time (in ticks) in various power states
system.cpu.itb.walker.walks                         0                       # Table walker walks requested
system.cpu.itb.walker.requestOrigin_Requested::Data            0                       # Table walker requests started/completed, data/inst
system.cpu.itb.walker.requestOrigin_Requested::Inst            0                       # Table walker requests started/completed, data/inst
system.cpu.itb.walker.requestOrigin_Requested::total            0                       # Table walker requests started/completed, data/inst
system.cpu.itb.walker.requestOrigin_Completed::Data            0                       # Table walker requests started/completed, data/inst
system.cpu.itb.walker.requestOrigin_Completed::Inst            0                       # Table walker requests started/completed, data/inst
system.cpu.itb.walker.requestOrigin_Completed::total            0                       # Table walker requests started/completed, data/inst
system.cpu.itb.walker.requestOrigin::total            0                       # Table walker requests started/completed, data/inst
system.cpu.itb.walker.power_state.pwrStateResidencyTicks::UNDEFINED  87782839000                       # Cumulative time (in ticks) in various power states
system.cpu.power_state.pwrStateResidencyTicks::ON  87782839000                       # Cumulative time (in ticks) in various power states
system.cpu.thread0.numInsts                 100000001                       # Number of Instructions committed
system.cpu.thread0.numOps                   100196356                       # Number of Ops committed
system.cpu.thread0.numMemRefs                       0                       # Number of Memory References
system.cpu_clk_domain.clock                       500                       # Clock period in ticks
system.cpu_voltage_domain.voltage                   1                       # Voltage in Volts
system.l2.demand_hits::.cpu.inst                   93                       # number of demand (read+write) hits
system.l2.demand_hits::.cpu.data               405908                       # number of demand (read+write) hits
system.l2.demand_hits::total                   406001                       # number of demand (read+write) hits
system.l2.overall_hits::.cpu.inst                  93                       # number of overall hits
system.l2.overall_hits::.cpu.data              405908                       # number of overall hits
system.l2.overall_hits::total                  406001                       # number of overall hits
system.l2.demand_misses::.cpu.inst                680                       # number of demand (read+write) misses
system.l2.demand_misses::.cpu.data             276870                       # number of demand (read+write) misses
system.l2.demand_misses::total                 277550                       # number of demand (read+write) misses
system.l2.overall_misses::.cpu.inst               680                       # number of overall misses
system.l2.overall_misses::.cpu.data            276870                       # number of overall misses
system.l2.overall_misses::total                277550                       # number of overall misses
system.l2.demand_miss_latency::.cpu.inst     53600500                       # number of demand (read+write) miss cycles
system.l2.demand_miss_latency::.cpu.data  24101318500                       # number of demand (read+write) miss cycles
system.l2.demand_miss_latency::total      24154919000                       # number of demand (read+write) miss cycles
system.l2.overall_miss_latency::.cpu.inst     53600500                       # number of overall miss cycles
system.l2.overall_miss_latency::.cpu.data  24101318500                       # number of overall miss cycles
system.l2.overall_miss_latency::total     24154919000                       # number of overall miss cycles
system.l2.demand_accesses::.cpu.inst              773                       # number of demand (read+write) accesses
system.l2.demand_accesses::.cpu.data           682778                       # number of demand (read+write) accesses
system.l2.demand_accesses::total               683551                       # number of demand (read+write) accesses
system.l2.overall_accesses::.cpu.inst             773                       # number of overall (read+write) accesses
system.l2.overall_accesses::.cpu.data          682778                       # number of overall (read+write) accesses
system.l2.overall_accesses::total              683551                       # number of overall (read+write) accesses
system.l2.demand_miss_rate::.cpu.inst        0.879690                       # miss rate for demand accesses
system.l2.demand_miss_rate::.cpu.data        0.405505                       # miss rate for demand accesses
system.l2.demand_miss_rate::total            0.406041                       # miss rate for demand accesses
system.l2.overall_miss_rate::.cpu.inst       0.879690                       # miss rate for overall accesses
system.l2.overall_miss_rate::.cpu.data       0.405505                       # miss rate for overall accesses
system.l2.overall_miss_rate::total           0.406041                       # miss rate for overall accesses
system.l2.demand_avg_miss_latency::.cpu.inst 78824.264706                       # average overall miss latency
system.l2.demand_avg_miss_latency::.cpu.data 87049.223462                       # average overall miss latency
system.l2.demand_avg_miss_latency::total 87029.072239                       # average overall miss latency
system.l2.overall_avg_miss_latency::.cpu.inst 78824.264706                       # average overall miss latency
system.l2.overall_avg_miss_latency::.cpu.data 87049.223462                       # average overall miss latency
system.l2.overall_avg_miss_latency::total 87029.072239                       # average overall miss latency
system.l2.blocked_cycles::no_mshrs                  0                       # number of cycles access was blocked
system.l2.blocked_cycles::no_targets                0                       # number of cycles access was blocked
system.l2.blocked::no_mshrs                         0                       # number of cycles access was blocked
system.l2.blocked::no_targets                       0                       # number of cycles access was blocked
system.l2.avg_blocked_cycles::no_mshrs            nan                       # average number of cycles each access was blocked
system.l2.avg_blocked_cycles::no_targets          nan                       # average number of cycles each access was blocked
system.l2.writebacks::.writebacks              190747                       # number of writebacks
system.l2.writebacks::total                    190747                       # number of writebacks
system.l2.demand_mshr_hits::.cpu.data               5                       # number of demand (read+write) MSHR hits
system.l2.demand_mshr_hits::total                   5                       # number of demand (read+write) MSHR hits
system.l2.overall_mshr_hits::.cpu.data              5                       # number of overall MSHR hits
system.l2.overall_mshr_hits::total                  5                       # number of overall MSHR hits
system.l2.demand_mshr_misses::.cpu.inst           680                       # number of demand (read+write) MSHR misses
system.l2.demand_mshr_misses::.cpu.data        276865                       # number of demand (read+write) MSHR misses
system.l2.demand_mshr_misses::total            277545                       # number of demand (read+write) MSHR misses
system.l2.overall_mshr_misses::.cpu.inst          680                       # number of overall MSHR misses
system.l2.overall_mshr_misses::.cpu.data       276865                       # number of overall MSHR misses
system.l2.overall_mshr_misses::total           277545                       # number of overall MSHR misses
system.l2.demand_mshr_miss_latency::.cpu.inst     46800500                       # number of demand (read+write) MSHR miss cycles
system.l2.demand_mshr_miss_latency::.cpu.data  21332226000                       # number of demand (read+write) MSHR miss cycles
system.l2.demand_mshr_miss_latency::total  21379026500                       # number of demand (read+write) MSHR miss cycles
system.l2.overall_mshr_miss_latency::.cpu.inst     46800500                       # number of overall MSHR miss cycles
system.l2.overall_mshr_miss_latency::.cpu.data  21332226000                       # number of overall MSHR miss cycles
system.l2.overall_mshr_miss_latency::total  21379026500                       # number of overall MSHR miss cycles
system.l2.demand_mshr_miss_rate::.cpu.inst     0.879690                       # mshr miss rate for demand accesses
system.l2.demand_mshr_miss_rate::.cpu.data     0.405498                       # mshr miss rate for demand accesses
system.l2.demand_mshr_miss_rate::total       0.406034                       # mshr miss rate for demand accesses
system.l2.overall_mshr_miss_rate::.cpu.inst     0.879690                       # mshr miss rate for overall accesses
system.l2.overall_mshr_miss_rate::.cpu.data     0.405498                       # mshr miss rate for overall accesses
system.l2.overall_mshr_miss_rate::total      0.406034                       # mshr miss rate for overall accesses
system.l2.demand_avg_mshr_miss_latency::.cpu.inst 68824.264706                       # average overall mshr miss latency
system.l2.demand_avg_mshr_miss_latency::.cpu.data 77049.197262                       # average overall mshr miss latency
system.l2.demand_avg_mshr_miss_latency::total 77029.045740                       # average overall mshr miss latency
system.l2.overall_avg_mshr_miss_latency::.cpu.inst 68824.264706                       # average overall mshr miss latency
system.l2.overall_avg_mshr_miss_latency::.cpu.data 77049.197262                       # average overall mshr miss latency
system.l2.overall_avg_mshr_miss_latency::total 77029.045740                       # average overall mshr miss latency
system.l2.replacements                         269646                       # number of replacements
system.l2.WritebackDirty_hits::.writebacks       587545                       # number of WritebackDirty hits
system.l2.WritebackDirty_hits::total           587545                       # number of WritebackDirty hits
system.l2.WritebackDirty_accesses::.writebacks       587545                       # number of WritebackDirty accesses(hits+misses)
system.l2.WritebackDirty_accesses::total       587545                       # number of WritebackDirty accesses(hits+misses)
system.l2.WritebackClean_hits::.writebacks          324                       # number of WritebackClean hits
system.l2.WritebackClean_hits::total              324                       # number of WritebackClean hits
system.l2.WritebackClean_accesses::.writebacks          324                       # number of WritebackClean accesses(hits+misses)
system.l2.WritebackClean_accesses::total          324                       # number of WritebackClean accesses(hits+misses)
system.l2.CleanEvict_mshr_misses::.writebacks           21                       # number of CleanEvict MSHR misses
system.l2.CleanEvict_mshr_misses::total            21                       # number of CleanEvict MSHR misses
system.l2.CleanEvict_mshr_miss_rate::.writebacks          inf                       # mshr miss rate for CleanEvict accesses
system.l2.CleanEvict_mshr_miss_rate::total          inf                       # mshr miss rate for CleanEvict accesses
system.l2.ReadExReq_hits::.cpu.data            118560                       # number of ReadExReq hits
system.l2.ReadExReq_hits::total                118560                       # number of ReadExReq hits
system.l2.ReadExReq_misses::.cpu.data          168209                       # number of ReadExReq misses
system.l2.ReadExReq_misses::total              168209                       # number of ReadExReq misses
system.l2.ReadExReq_miss_latency::.cpu.data  15083462500                       # number of ReadExReq miss cycles
system.l2.ReadExReq_miss_latency::total   15083462500                       # number of ReadExReq miss cycles
system.l2.ReadExReq_accesses::.cpu.data        286769                       # number of ReadExReq accesses(hits+misses)
system.l2.ReadExReq_accesses::total            286769                       # number of ReadExReq accesses(hits+misses)
system.l2.ReadExReq_miss_rate::.cpu.data     0.586566                       # miss rate for ReadExReq accesses
system.l2.ReadExReq_miss_rate::total         0.586566                       # miss rate for ReadExReq accesses
system.l2.ReadExReq_avg_miss_latency::.cpu.data 89670.959937                       # average ReadExReq miss latency
system.l2.ReadExReq_avg_miss_latency::total 89670.959937                       # average ReadExReq miss latency
system.l2.ReadExReq_mshr_misses::.cpu.data       168209                       # number of ReadExReq MSHR misses
system.l2.ReadExReq_mshr_misses::total         168209                       # number of ReadExReq MSHR misses
system.l2.ReadExReq_mshr_miss_latency::.cpu.data  13401372500                       # number of ReadExReq MSHR miss cycles
system.l2.ReadExReq_mshr_miss_latency::total  13401372500                       # number of ReadExReq MSHR miss cycles
system.l2.ReadExReq_mshr_miss_rate::.cpu.data     0.586566                       # mshr miss rate for ReadExReq accesses
system.l2.ReadExReq_mshr_miss_rate::total     0.586566                       # mshr miss rate for ReadExReq accesses
system.l2.ReadExReq_avg_mshr_miss_latency::.cpu.data 79670.959937                       # average ReadExReq mshr miss latency
system.l2.ReadExReq_avg_mshr_miss_latency::total 79670.959937                       # average ReadExReq mshr miss latency
system.l2.ReadCleanReq_hits::.cpu.inst             93                       # number of ReadCleanReq hits
system.l2.ReadCleanReq_hits::total                 93                       # number of ReadCleanReq hits
system.l2.ReadCleanReq_misses::.cpu.inst          680                       # number of ReadCleanReq misses
system.l2.ReadCleanReq_misses::total              680                       # number of ReadCleanReq misses
system.l2.ReadCleanReq_miss_latency::.cpu.inst     53600500                       # number of ReadCleanReq miss cycles
system.l2.ReadCleanReq_miss_latency::total     53600500                       # number of ReadCleanReq miss cycles
system.l2.ReadCleanReq_accesses::.cpu.inst          773                       # number of ReadCleanReq accesses(hits+misses)
system.l2.ReadCleanReq_accesses::total            773                       # number of ReadCleanReq accesses(hits+misses)
system.l2.ReadCleanReq_miss_rate::.cpu.inst     0.879690                       # miss rate for ReadCleanReq accesses
system.l2.ReadCleanReq_miss_rate::total      0.879690                       # miss rate for ReadCleanReq accesses
system.l2.ReadCleanReq_avg_miss_latency::.cpu.inst 78824.264706                       # average ReadCleanReq miss latency
system.l2.ReadCleanReq_avg_miss_latency::total 78824.264706                       # average ReadCleanReq miss latency
system.l2.ReadCleanReq_mshr_misses::.cpu.inst          680                       # number of ReadCleanReq MSHR misses
system.l2.ReadCleanReq_mshr_misses::total          680                       # number of ReadCleanReq MSHR misses
system.l2.ReadCleanReq_mshr_miss_latency::.cpu.inst     46800500                       # number of ReadCleanReq MSHR miss cycles
system.l2.ReadCleanReq_mshr_miss_latency::total     46800500                       # number of ReadCleanReq MSHR miss cycles
system.l2.ReadCleanReq_mshr_miss_rate::.cpu.inst     0.879690                       # mshr miss rate for ReadCleanReq accesses
system.l2.ReadCleanReq_mshr_miss_rate::total     0.879690                       # mshr miss rate for ReadCleanReq accesses
system.l2.ReadCleanReq_avg_mshr_miss_latency::.cpu.inst 68824.264706                       # average ReadCleanReq mshr miss latency
system.l2.ReadCleanReq_avg_mshr_miss_latency::total 68824.264706                       # average ReadCleanReq mshr miss latency
system.l2.ReadSharedReq_hits::.cpu.data        287348                       # number of ReadSharedReq hits
system.l2.ReadSharedReq_hits::total            287348                       # number of ReadSharedReq hits
system.l2.ReadSharedReq_misses::.cpu.data       108661                       # number of ReadSharedReq misses
system.l2.ReadSharedReq_misses::total          108661                       # number of ReadSharedReq misses
system.l2.ReadSharedReq_miss_latency::.cpu.data   9017856000                       # number of ReadSharedReq miss cycles
system.l2.ReadSharedReq_miss_latency::total   9017856000                       # number of ReadSharedReq miss cycles
system.l2.ReadSharedReq_accesses::.cpu.data       396009                       # number of ReadSharedReq accesses(hits+misses)
system.l2.ReadSharedReq_accesses::total        396009                       # number of ReadSharedReq accesses(hits+misses)
system.l2.ReadSharedReq_miss_rate::.cpu.data     0.274390                       # miss rate for ReadSharedReq accesses
system.l2.ReadSharedReq_miss_rate::total     0.274390                       # miss rate for ReadSharedReq accesses
system.l2.ReadSharedReq_avg_miss_latency::.cpu.data 82990.732646                       # average ReadSharedReq miss latency
system.l2.ReadSharedReq_avg_miss_latency::total 82990.732646                       # average ReadSharedReq miss latency
system.l2.ReadSharedReq_mshr_hits::.cpu.data            5                       # number of ReadSharedReq MSHR hits
system.l2.ReadSharedReq_mshr_hits::total            5                       # number of ReadSharedReq MSHR hits
system.l2.ReadSharedReq_mshr_misses::.cpu.data       108656                       # number of ReadSharedReq MSHR misses
system.l2.ReadSharedReq_mshr_misses::total       108656                       # number of ReadSharedReq MSHR misses
system.l2.ReadSharedReq_mshr_miss_latency::.cpu.data   7930853500                       # number of ReadSharedReq MSHR miss cycles
system.l2.ReadSharedReq_mshr_miss_latency::total   7930853500                       # number of ReadSharedReq MSHR miss cycles
system.l2.ReadSharedReq_mshr_miss_rate::.cpu.data     0.274378                       # mshr miss rate for ReadSharedReq accesses
system.l2.ReadSharedReq_mshr_miss_rate::total     0.274378                       # mshr miss rate for ReadSharedReq accesses
system.l2.ReadSharedReq_avg_mshr_miss_latency::.cpu.data 72990.479127                       # average ReadSharedReq mshr miss latency
system.l2.ReadSharedReq_avg_mshr_miss_latency::total 72990.479127                       # average ReadSharedReq mshr miss latency
system.l2.power_state.pwrStateResidencyTicks::UNDEFINED  87782839000                       # Cumulative time (in ticks) in various power states
system.l2.tags.tagsinuse                  8040.881023                       # Cycle average of tags in use
system.l2.tags.total_refs                     1365537                       # Total number of references to valid blocks.
system.l2.tags.sampled_refs                    277838                       # Sample count of references to valid blocks.
system.l2.tags.avg_refs                      4.914868                       # Average number of references to valid blocks.
system.l2.tags.warmup_cycle                     77000                       # Cycle when the warmup percentage was hit.
system.l2.tags.occ_blocks::.writebacks      24.222944                       # Average occupied blocks per requestor
system.l2.tags.occ_blocks::.cpu.inst        27.063872                       # Average occupied blocks per requestor
system.l2.tags.occ_blocks::.cpu.data      7989.594206                       # Average occupied blocks per requestor
system.l2.tags.occ_percent::.writebacks      0.002957                       # Average percentage of cache occupancy
system.l2.tags.occ_percent::.cpu.inst        0.003304                       # Average percentage of cache occupancy
system.l2.tags.occ_percent::.cpu.data        0.975292                       # Average percentage of cache occupancy
system.l2.tags.occ_percent::total            0.981553                       # Average percentage of cache occupancy
system.l2.tags.occ_task_id_blocks::1024          8192                       # Occupied blocks per task id
system.l2.tags.age_task_id_blocks_1024::0           13                       # Occupied blocks per task id
system.l2.tags.age_task_id_blocks_1024::1          332                       # Occupied blocks per task id
system.l2.tags.age_task_id_blocks_1024::2         4155                       # Occupied blocks per task id
system.l2.tags.age_task_id_blocks_1024::3         3690                       # Occupied blocks per task id
system.l2.tags.age_task_id_blocks_1024::4            2                       # Occupied blocks per task id
system.l2.tags.occ_task_id_percent::1024            1                       # Percentage of cache occupancy per task id
system.l2.tags.tag_accesses                  11202342                       # Number of tag accesses
system.l2.tags.data_accesses                 11202342                       # Number of data accesses
system.l2.tags.power_state.pwrStateResidencyTicks::UNDEFINED  87782839000                       # Cumulative time (in ticks) in various power states
system.mem_ctrls.avgPriority_.writebacks::samples    190747.00                       # Average QoS priority value for accepted requests
system.mem_ctrls.avgPriority_.cpu.inst::samples       680.00                       # Average QoS priority value for accepted requests
system.mem_ctrls.avgPriority_.cpu.data::samples    276271.00                       # Average QoS priority value for accepted requests
system.mem_ctrls.priorityMinLatency      0.000000018750                       # per QoS priority minimum request to response latency (s)
system.mem_ctrls.priorityMaxLatency      0.012513096500                       # per QoS priority maximum request to response latency (s)
system.mem_ctrls.numReadWriteTurnArounds        11329                       # Number of turnarounds from READ to WRITE
system.mem_ctrls.numWriteReadTurnArounds        11329                       # Number of turnarounds from WRITE to READ
system.mem_ctrls.numStayReadState              752865                       # Number of times bus staying in READ state
system.mem_ctrls.numStayWriteState             179631                       # Number of times bus staying in WRITE state
system.mem_ctrls.readReqs                      277545                       # Number of read requests accepted
system.mem_ctrls.writeReqs                     190747                       # Number of write requests accepted
system.mem_ctrls.readBursts                    277545                       # Number of controller read bursts, including those serviced by the write queue
system.mem_ctrls.writeBursts                   190747                       # Number of controller write bursts, including those merged in the write queue
system.mem_ctrls.servicedByWrQ                    594                       # Number of controller read bursts serviced by the write queue
system.mem_ctrls.mergedWrBursts                     0                       # Number of controller write bursts merged with an existing one
system.mem_ctrls.neitherReadNorWriteReqs            0                       # Number of requests that are neither read nor write
system.mem_ctrls.avgRdQLen                       1.10                       # Average read queue length when enqueuing
system.mem_ctrls.avgWrQLen                      25.18                       # Average write queue length when enqueuing
system.mem_ctrls.numRdRetry                         0                       # Number of times read queue was full causing retry
system.mem_ctrls.numWrRetry                         0                       # Number of times write queue was full causing retry
system.mem_ctrls.readPktSize::0                     0                       # Read request sizes (log2)
system.mem_ctrls.readPktSize::1                     0                       # Read request sizes (log2)
system.mem_ctrls.readPktSize::2                     0                       # Read request sizes (log2)
system.mem_ctrls.readPktSize::3                     0                       # Read request sizes (log2)
system.mem_ctrls.readPktSize::4                     0                       # Read request sizes (log2)
system.mem_ctrls.readPktSize::5                     0                       # Read request sizes (log2)
system.mem_ctrls.readPktSize::6                277545                       # Read request sizes (log2)
system.mem_ctrls.writePktSize::0                    0                       # Write request sizes (log2)
system.mem_ctrls.writePktSize::1                    0                       # Write request sizes (log2)
system.mem_ctrls.writePktSize::2                    0                       # Write request sizes (log2)
system.mem_ctrls.writePktSize::3                    0                       # Write request sizes (log2)
system.mem_ctrls.writePktSize::4                    0                       # Write request sizes (log2)
system.mem_ctrls.writePktSize::5                    0                       # Write request sizes (log2)
system.mem_ctrls.writePktSize::6               190747                       # Write request sizes (log2)
system.mem_ctrls.rdQLenPdf::0                  205886                       # What read queue length does an incoming req see
system.mem_ctrls.rdQLenPdf::1                   67554                       # What read queue length does an incoming req see
system.mem_ctrls.rdQLenPdf::2                    3057                       # What read queue length does an incoming req see
system.mem_ctrls.rdQLenPdf::3                     453                       # What read queue length does an incoming req see
system.mem_ctrls.rdQLenPdf::4                       1                       # What read queue length does an incoming req see
system.mem_ctrls.rdQLenPdf::5                       0                       # What read queue length does an incoming req see
system.mem_ctrls.rdQLenPdf::6                       0                       # What read queue length does an incoming req see
system.mem_ctrls.rdQLenPdf::7                       0                       # What read queue length does an incoming req see
[...]
system.mem_ctrls.dram.bw_write::.writebacks    139068275                       # Write bandwidth from this memory (bytes/s)
system.mem_ctrls.dram.bw_write::total       139068275                       # Write bandwidth from this memory (bytes/s)
system.mem_ctrls.dram.bw_total::.writebacks    139068275                       # Total bandwidth to/from this memory (bytes/s)
system.mem_ctrls.dram.bw_total::.cpu.inst       495769                       # Total bandwidth to/from this memory (bytes/s)
system.mem_ctrls.dram.bw_total::.cpu.data    201854488                       # Total bandwidth to/from this memory (bytes/s)
system.mem_ctrls.dram.bw_total::total       341418532                       # Total bandwidth to/from this memory (bytes/s)
system.mem_ctrls.dram.readBursts               276951                       # Number of DRAM read bursts
system.mem_ctrls.dram.writeBursts              190731                       # Number of DRAM write bursts
system.mem_ctrls.dram.perBankRdBursts::0        17293                       # Per bank write bursts
system.mem_ctrls.dram.perBankRdBursts::1        17165                       # Per bank write bursts
system.mem_ctrls.dram.perBankRdBursts::2        16671                       # Per bank write bursts
system.mem_ctrls.dram.perBankRdBursts::3        17028                       # Per bank write bursts
system.mem_ctrls.dram.perBankRdBursts::4        17456                       # Per bank write bursts
system.mem_ctrls.dram.perBankRdBursts::5        16837                       # Per bank write bursts
system.mem_ctrls.dram.perBankRdBursts::6        17451                       # Per bank write bursts
system.mem_ctrls.dram.perBankRdBursts::7        18084                       # Per bank write bursts
system.mem_ctrls.dram.perBankRdBursts::8        17594                       # Per bank write bursts
system.mem_ctrls.dram.perBankRdBursts::9        16712                       # Per bank write bursts
system.mem_ctrls.dram.perBankRdBursts::10        16401                       # Per bank write bursts
system.mem_ctrls.dram.perBankRdBursts::11        17538                       # Per bank write bursts
system.mem_ctrls.dram.perBankRdBursts::12        17192                       # Per bank write bursts
system.mem_ctrls.dram.perBankRdBursts::13        17797                       # Per bank write bursts
system.mem_ctrls.dram.perBankRdBursts::14        17772                       # Per bank write bursts
system.mem_ctrls.dram.perBankRdBursts::15        17960                       # Per bank write bursts
system.mem_ctrls.dram.perBankWrBursts::0        11782                       # Per bank write bursts
system.mem_ctrls.dram.perBankWrBursts::1        11721                       # Per bank write bursts
system.mem_ctrls.dram.perBankWrBursts::2        11311                       # Per bank write bursts
system.mem_ctrls.dram.perBankWrBursts::3        11709                       # Per bank write bursts
system.mem_ctrls.dram.perBankWrBursts::4        12053                       # Per bank write bursts
system.mem_ctrls.dram.perBankWrBursts::5        11652                       # Per bank write bursts
system.mem_ctrls.dram.perBankWrBursts::6        12152                       # Per bank write bursts
system.mem_ctrls.dram.perBankWrBursts::7        12746                       # Per bank write bursts
system.mem_ctrls.dram.perBankWrBursts::8        12310                       # Per bank write bursts
system.mem_ctrls.dram.perBankWrBursts::9        11574                       # Per bank write bursts
system.mem_ctrls.dram.perBankWrBursts::10        11100                       # Per bank write bursts
system.mem_ctrls.dram.perBankWrBursts::11        12116                       # Per bank write bursts
system.mem_ctrls.dram.perBankWrBursts::12        11606                       # Per bank write bursts
system.mem_ctrls.dram.perBankWrBursts::13        12199                       # Per bank write bursts
system.mem_ctrls.dram.perBankWrBursts::14        12226                       # Per bank write bursts
system.mem_ctrls.dram.perBankWrBursts::15        12474                       # Per bank write bursts
system.mem_ctrls.dram.totQLat              4749875250                       # Total ticks spent queuing
system.mem_ctrls.dram.totBusLat            1384755000                       # Total ticks spent in databus transfers
system.mem_ctrls.dram.totMemAccLat         9942706500                       # Total ticks spent from burst creation until serviced by the DRAM
system.mem_ctrls.dram.avgQLat                17150.60                       # Average queueing delay per DRAM burst
system.mem_ctrls.dram.avgBusLat               5000.00                       # Average bus latency per DRAM burst
system.mem_ctrls.dram.avgMemAccLat           35900.60                       # Average memory access latency per DRAM burst
system.mem_ctrls.dram.readRowHits              155217                       # Number of row buffer hits during reads
system.mem_ctrls.dram.writeRowHits              98296                       # Number of row buffer hits during writes
system.mem_ctrls.dram.readRowHitRate            56.04                       # Row buffer hit rate for reads
system.mem_ctrls.dram.writeRowHitRate           51.54                       # Row buffer hit rate for writes
system.mem_ctrls.dram.bytesPerActivate::samples       214169                       # Bytes accessed per row activation
system.mem_ctrls.dram.bytesPerActivate::mean   139.757145                       # Bytes accessed per row activation
system.mem_ctrls.dram.bytesPerActivate::gmean    91.919498                       # Bytes accessed per row activation
system.mem_ctrls.dram.bytesPerActivate::stdev   200.407425                       # Bytes accessed per row activation
system.mem_ctrls.dram.bytesPerActivate::0-127       158643     74.07%     74.07% # Bytes accessed per row activation
system.mem_ctrls.dram.bytesPerActivate::128-255        30635     14.30%     88.38% # Bytes accessed per row activation
system.mem_ctrls.dram.bytesPerActivate::256-383         4061      1.90%     90.27% # Bytes accessed per row activation
system.mem_ctrls.dram.bytesPerActivate::384-511         2276      1.06%     91.34% # Bytes accessed per row activation
system.mem_ctrls.dram.bytesPerActivate::512-639        10099      4.72%     96.05% # Bytes accessed per row activation
system.mem_ctrls.dram.bytesPerActivate::640-767          687      0.32%     96.37% # Bytes accessed per row activation
system.mem_ctrls.dram.bytesPerActivate::768-895          468      0.22%     96.59% # Bytes accessed per row activation
system.mem_ctrls.dram.bytesPerActivate::896-1023          844      0.39%     96.99% # Bytes accessed per row activation
system.mem_ctrls.dram.bytesPerActivate::1024-1151         6456      3.01%    100.00% # Bytes accessed per row activation
system.mem_ctrls.dram.bytesPerActivate::total       214169                       # Bytes accessed per row activation
system.mem_ctrls.dram.bytesRead              17724864                       # Total number of bytes read from DRAM
system.mem_ctrls.dram.bytesWritten           12206784                       # Total number of bytes written to DRAM
system.mem_ctrls.dram.avgRdBW              201.917188                       # Average DRAM read bandwidth in MiBytes/s
system.mem_ctrls.dram.avgWrBW              139.056610                       # Average DRAM write bandwidth in MiBytes/s
system.mem_ctrls.dram.peakBW                 12800.00                       # Theoretical peak bandwidth in MiByte/s
system.mem_ctrls.dram.busUtil                    2.66                       # Data bus utilization in percentage
system.mem_ctrls.dram.busUtilRead                1.58                       # Data bus utilization in percentage for reads
system.mem_ctrls.dram.busUtilWrite               1.09                       # Data bus utilization in percentage for writes
system.mem_ctrls.dram.pageHitRate               54.21                       # Row buffer hit rate, read and write combined
system.mem_ctrls.dram.power_state.pwrStateResidencyTicks::UNDEFINED  87782839000                       # Cumulative time (in ticks) in various power states
system.mem_ctrls.dram.rank0.actEnergy       759167640                       # Energy for activate commands per rank (pJ)
system.mem_ctrls.dram.rank0.preEnergy       403507170                       # Energy for precharge commands per rank (pJ)
system.mem_ctrls.dram.rank0.readEnergy      985212900                       # Energy for read commands per rank (pJ)
system.mem_ctrls.dram.rank0.writeEnergy     496557720                       # Energy for write commands per rank (pJ)
system.mem_ctrls.dram.rank0.refreshEnergy 6929451360.000001                       # Energy for refresh commands per rank (pJ)
system.mem_ctrls.dram.rank0.actBackEnergy  26294017920                       # Energy for active background per rank (pJ)
system.mem_ctrls.dram.rank0.preBackEnergy  11566279680                       # Energy for precharge background per rank (pJ)
system.mem_ctrls.dram.rank0.actPowerDownEnergy            0                       # Energy for active power-down per rank (pJ)
system.mem_ctrls.dram.rank0.prePowerDownEnergy            0                       # Energy for precharge power-down per rank (pJ)
system.mem_ctrls.dram.rank0.selfRefreshEnergy            0                       # Energy for self refresh per rank (pJ)
system.mem_ctrls.dram.rank0.totalEnergy   47434194390                       # Total energy per rank (pJ)
system.mem_ctrls.dram.rank0.averagePower   540.358400                       # Core power per rank (mW)
system.mem_ctrls.dram.rank0.totalIdleTime            0                       # Total Idle time Per DRAM Rank
system.mem_ctrls.dram.rank0.pwrStateTime::IDLE  29803543500                       # Time in different power states
system.mem_ctrls.dram.rank0.pwrStateTime::REF   2931240000                       # Time in different power states
system.mem_ctrls.dram.rank0.pwrStateTime::SREF            0                       # Time in different power states
system.mem_ctrls.dram.rank0.pwrStateTime::PRE_PDN            0                       # Time in different power states
system.mem_ctrls.dram.rank0.pwrStateTime::ACT  55048055500                       # Time in different power states
system.mem_ctrls.dram.rank0.pwrStateTime::ACT_PDN            0                       # Time in different power states
system.mem_ctrls.dram.rank1.actEnergy       769999020                       # Energy for activate commands per rank (pJ)
system.mem_ctrls.dram.rank1.preEnergy       409264185                       # Energy for precharge commands per rank (pJ)
system.mem_ctrls.dram.rank1.readEnergy      992217240                       # Energy for read commands per rank (pJ)
system.mem_ctrls.dram.rank1.writeEnergy     499058100                       # Energy for write commands per rank (pJ)
system.mem_ctrls.dram.rank1.refreshEnergy 6929451360.000001                       # Energy for refresh commands per rank (pJ)
system.mem_ctrls.dram.rank1.actBackEnergy  26010959340                       # Energy for active background per rank (pJ)
system.mem_ctrls.dram.rank1.preBackEnergy  11804644800                       # Energy for precharge background per rank (pJ)
system.mem_ctrls.dram.rank1.actPowerDownEnergy            0                       # Energy for active power-down per rank (pJ)
system.mem_ctrls.dram.rank1.prePowerDownEnergy            0                       # Energy for precharge power-down per rank (pJ)
system.mem_ctrls.dram.rank1.selfRefreshEnergy            0                       # Energy for self refresh per rank (pJ)
system.mem_ctrls.dram.rank1.totalEnergy   47415594045                       # Total energy per rank (pJ)
system.mem_ctrls.dram.rank1.averagePower   540.146509                       # Core power per rank (mW)
system.mem_ctrls.dram.rank1.totalIdleTime            0                       # Total Idle time Per DRAM Rank
system.mem_ctrls.dram.rank1.pwrStateTime::IDLE  30423241000                       # Time in different power states
system.mem_ctrls.dram.rank1.pwrStateTime::REF   2931240000                       # Time in different power states
system.mem_ctrls.dram.rank1.pwrStateTime::SREF            0                       # Time in different power states
system.mem_ctrls.dram.rank1.pwrStateTime::PRE_PDN            0                       # Time in different power states
system.mem_ctrls.dram.rank1.pwrStateTime::ACT  54428358000                       # Time in different power states
system.mem_ctrls.dram.rank1.pwrStateTime::ACT_PDN            0                       # Time in different power states
system.mem_ctrls.power_state.pwrStateResidencyTicks::UNDEFINED  87782839000                       # Cumulative time (in ticks) in various power states
system.membus.trans_dist::ReadResp             109336                       # Transaction distribution
system.membus.trans_dist::WritebackDirty       190747                       # Transaction distribution
system.membus.trans_dist::CleanEvict            78156                       # Transaction distribution
system.membus.trans_dist::ReadExReq            168209                       # Transaction distribution
system.membus.trans_dist::ReadExResp           168209                       # Transaction distribution
system.membus.trans_dist::ReadSharedReq        109336                       # Transaction distribution
system.membus.pkt_count_system.l2.mem_side_port::system.mem_ctrls.port       823993                       # Packet count per connected requestor and responder (bytes)
system.membus.pkt_count::total                 823993                       # Packet count per connected requestor and responder (bytes)
system.membus.pkt_size_system.l2.mem_side_port::system.mem_ctrls.port     29970688                       # Cumulative packet size per connected requestor and responder (bytes)
system.membus.pkt_size::total                29970688                       # Cumulative packet size per connected requestor and responder (bytes)
system.membus.snoops                                0                       # Total snoops (count)
system.membus.snoopTraffic                          0                       # Total snoop traffic (bytes)
system.membus.snoop_fanout::samples            277545                       # Request fanout histogram
system.membus.snoop_fanout::mean                    0                       # Request fanout histogram
system.membus.snoop_fanout::stdev                   0                       # Request fanout histogram
system.membus.snoop_fanout::underflows              0      0.00%      0.00% # Request fanout histogram
system.membus.snoop_fanout::0                  277545    100.00%    100.00% # Request fanout histogram
system.membus.snoop_fanout::1                       0      0.00%    100.00% # Request fanout histogram
system.membus.snoop_fanout::overflows               0      0.00%    100.00% # Request fanout histogram
system.membus.snoop_fanout::min_value               0                       # Request fanout histogram
system.membus.snoop_fanout::max_value               0                       # Request fanout histogram
system.membus.snoop_fanout::total              277545                       # Request fanout histogram
system.membus.power_state.pwrStateResidencyTicks::UNDEFINED  87782839000                       # Cumulative time (in ticks) in various power states
system.membus.reqLayer0.occupancy          1361924500                       # Layer occupancy (ticks)
system.membus.reqLayer0.utilization               1.6                       # Layer utilization (%)
system.membus.respLayer1.occupancy         1505973500                       # Layer occupancy (ticks)
system.membus.respLayer1.utilization              1.7                       # Layer utilization (%)
system.tol2bus.trans_dist::ReadResp            396782                       # Transaction distribution
system.tol2bus.trans_dist::WritebackDirty       778292                       # Transaction distribution
system.tol2bus.trans_dist::WritebackClean          333                       # Transaction distribution
system.tol2bus.trans_dist::CleanEvict          173108                       # Transaction distribution
system.tol2bus.trans_dist::ReadExReq           286769                       # Transaction distribution
system.tol2bus.trans_dist::ReadExResp          286769                       # Transaction distribution
system.tol2bus.trans_dist::ReadCleanReq           773                       # Transaction distribution
system.tol2bus.trans_dist::ReadSharedReq       396009                       # Transaction distribution
system.tol2bus.pkt_count_system.cpu.icache.mem_side_port::system.l2.cpu_side_port         1879                       # Packet count per connected requestor and responder (bytes)
system.tol2bus.pkt_count_system.cpu.dcache.mem_side_port::system.l2.cpu_side_port      2047310                       # Packet count per connected requestor and responder (bytes)
system.tol2bus.pkt_count::total               2049189                       # Packet count per connected requestor and responder (bytes)
system.tol2bus.pkt_size_system.cpu.icache.mem_side_port::system.l2.cpu_side_port        70784                       # Cumulative packet size per connected requestor and responder (bytes)
system.tol2bus.pkt_size_system.cpu.dcache.mem_side_port::system.l2.cpu_side_port     81300672                       # Cumulative packet size per connected requestor and responder (bytes)
system.tol2bus.pkt_size::total               81371456                       # Cumulative packet size per connected requestor and responder (bytes)
system.tol2bus.snoops                          269646                       # Total snoops (count)
system.tol2bus.snoopTraffic                  12207808                       # Total snoop traffic (bytes)
system.tol2bus.snoop_fanout::samples           953197                       # Request fanout histogram
system.tol2bus.snoop_fanout::mean            0.000891                       # Request fanout histogram
system.tol2bus.snoop_fanout::stdev           0.030111                       # Request fanout histogram
system.tol2bus.snoop_fanout::underflows             0      0.00%      0.00% # Request fanout histogram
system.tol2bus.snoop_fanout::0                 952356     99.91%     99.91% # Request fanout histogram
system.tol2bus.snoop_fanout::1                    833      0.09%    100.00% # Request fanout histogram
system.tol2bus.snoop_fanout::2                      8      0.00%    100.00% # Request fanout histogram
system.tol2bus.snoop_fanout::overflows              0      0.00%    100.00% # Request fanout histogram
system.tol2bus.snoop_fanout::min_value              0                       # Request fanout histogram
system.tol2bus.snoop_fanout::max_value              2                       # Request fanout histogram
system.tol2bus.snoop_fanout::total             953197                       # Request fanout histogram
system.tol2bus.power_state.pwrStateResidencyTicks::UNDEFINED  87782839000                       # Cumulative time (in ticks) in various power states
system.tol2bus.reqLayer0.occupancy         1270697000                       # Layer occupancy (ticks)
system.tol2bus.reqLayer0.utilization              1.4                       # Layer utilization (%)
system.tol2bus.respLayer0.occupancy           1159500                       # Layer occupancy (ticks)
system.tol2bus.respLayer0.utilization             0.0                       # Layer utilization (%)
system.tol2bus.respLayer1.occupancy        1024169495                       # Layer occupancy (ticks)
system.tol2bus.respLayer1.utilization             1.2                       # Layer utilization (%)
system.voltage_domain.voltage                       1                       # Voltage in Volts

---------- End Simulation Statistics   ----------
