
---------- Begin Simulation Statistics ----------
final_tick                                70067762000                       # Number of ticks from beginning of simulation (restored from checkpoints and never reset)
host_inst_rate                                 360633                       # Simulator instruction rate (inst/s)
host_mem_usage                                 670880                       # Number of bytes of host memory used
host_op_rate                                   421315                       # Simulator op (including micro ops) rate (op/s)
host_seconds                                   277.29                       # Real time elapsed on the host
host_tick_rate                              252687198                       # Simulator tick rate (ticks/s)
sim_freq                                 1000000000000                       # Frequency of simulated ticks
sim_insts                                   100000000                       # Number of instructions simulated
sim_ops                                     116826593                       # Number of ops (including micro ops) simulated
sim_seconds                                  0.070068                       # Number of seconds simulated
sim_ticks                                 70067762000                       # Number of ticks simulated
system.cpu.committedInsts                   100000000                       # Number of instructions committed
system.cpu.committedOps                     116826593                       # Number of ops (including micro ops) committed
system.cpu.cpi                               1.401355                       # CPI: cycles per instruction
system.cpu.discardedOps                        503888                       # Number of ops (including micro ops) which were discarded before commit
system.cpu.idleCycles                         5084330                       # Total number of cycles that the object has spent stopped
system.cpu.ipc                               0.713595                       # IPC: instructions per cycle
system.cpu.numCycles                        140135524                       # number of cpu cycles simulated
system.cpu.numFetchSuspends                         0                       # Number of times Execute suspended instruction fetching
system.cpu.numWorkItemsCompleted                    0                       # number of work items this cpu completed
system.cpu.numWorkItemsStarted                      0                       # number of work items this cpu started
system.cpu.op_class_0::No_OpClass                   0      0.00%      0.00% # Class of committed instruction
system.cpu.op_class_0::IntAlu                65231396     55.84%     55.84% # Class of committed instruction
system.cpu.op_class_0::IntMult                 602374      0.52%     56.35% # Class of committed instruction
system.cpu.op_class_0::IntDiv                       0      0.00%     56.35% # Class of committed instruction
system.cpu.op_class_0::FloatAdd                     0      0.00%     56.35% # Class of committed instruction
system.cpu.op_class_0::FloatCmp                     0      0.00%     56.35% # Class of committed instruction
system.cpu.op_class_0::FloatCvt                     0      0.00%     56.35% # Class of committed instruction
system.cpu.op_class_0::FloatMult                    0      0.00%     56.35% # Class of committed instruction
system.cpu.op_class_0::FloatMultAcc                 0      0.00%     56.35% # Class of committed instruction
system.cpu.op_class_0::FloatDiv                     0      0.00%     56.35% # Class of committed instruction
system.cpu.op_class_0::FloatMisc                    0      0.00%     56.35% # Class of committed instruction
system.cpu.op_class_0::FloatSqrt                    0      0.00%     56.35% # Class of committed instruction
system.cpu.op_class_0::SimdAdd                    380      0.00%     56.35% # Class of committed instruction
system.cpu.op_class_0::SimdAddAcc                   0      0.00%     56.35% # Class of committed instruction
system.cpu.op_class_0::SimdAlu                    470      0.00%     56.35% # Class of committed instruction
system.cpu.op_class_0::SimdCmp                    382      0.00%     56.35% # Class of committed instruction
system.cpu.op_class_0::SimdCvt                      0      0.00%     56.35% # Class of committed instruction
system.cpu.op_class_0::SimdMisc                    53      0.00%     56.35% # Class of committed instruction
system.cpu.op_class_0::SimdMult                     0      0.00%     56.35% # Class of committed instruction
system.cpu.op_class_0::SimdMultAcc                  0      0.00%     56.35% # Class of committed instruction
system.cpu.op_class_0::SimdShift                    0      0.00%     56.35% # Class of committed instruction
system.cpu.op_class_0::SimdShiftAcc                 0      0.00%     56.35% # Class of committed instruction
system.cpu.op_class_0::SimdDiv                      0      0.00%     56.35% # Class of committed instruction
system.cpu.op_class_0::SimdSqrt                     0      0.00%     56.35% # Class of committed instruction
system.cpu.op_class_0::SimdFloatAdd            783705      0.67%     57.02% # Class of committed instruction
system.cpu.op_class_0::SimdFloatAlu                 0      0.00%     57.02% # Class of committed instruction
system.cpu.op_class_0::SimdFloatCmp            769156      0.66%     57.68% # Class of committed instruction
system.cpu.op_class_0::SimdFloatCvt            311548      0.27%     57.95% # Class of committed instruction
system.cpu.op_class_0::SimdFloatDiv            152211      0.13%     58.08% # Class of committed instruction
system.cpu.op_class_0::SimdFloatMisc           950762      0.81%     58.89% # Class of committed instruction
system.cpu.op_class_0::SimdFloatMult            86008      0.07%     58.97% # Class of committed instruction
system.cpu.op_class_0::SimdFloatMultAcc         12802      0.01%     58.98% # Class of committed instruction
system.cpu.op_class_0::SimdFloatSqrt                0      0.00%     58.98% # Class of committed instruction
system.cpu.op_class_0::SimdReduceAdd                0      0.00%     58.98% # Class of committed instruction
system.cpu.op_class_0::SimdReduceAlu                0      0.00%     58.98% # Class of committed instruction
system.cpu.op_class_0::SimdReduceCmp                0      0.00%     58.98% # Class of committed instruction
system.cpu.op_class_0::SimdFloatReduceAdd            0      0.00%     58.98% # Class of committed instruction
system.cpu.op_class_0::SimdFloatReduceCmp            0      0.00%     58.98% # Class of committed instruction
system.cpu.op_class_0::SimdAes                      0      0.00%     58.98% # Class of committed instruction
system.cpu.op_class_0::SimdAesMix                   0      0.00%     58.98% # Class of committed instruction
system.cpu.op_class_0::SimdSha1Hash                 0      0.00%     58.98% # Class of committed instruction
system.cpu.op_class_0::SimdSha1Hash2                0      0.00%     58.98% # Class of committed instruction
system.cpu.op_class_0::SimdSha256Hash               0      0.00%     58.98% # Class of committed instruction
system.cpu.op_class_0::SimdSha256Hash2              0      0.00%     58.98% # Class of committed instruction
system.cpu.op_class_0::SimdShaSigma2                0      0.00%     58.98% # Class of committed instruction
system.cpu.op_class_0::SimdShaSigma3                0      0.00%     58.98% # Class of committed instruction
system.cpu.op_class_0::SimdPredAlu                  0      0.00%     58.98% # Class of committed instruction
system.cpu.op_class_0::MemRead               30319972     25.95%     84.93% # Class of committed instruction
system.cpu.op_class_0::MemWrite              17605374     15.07%    100.00% # Class of committed instruction
system.cpu.op_class_0::FloatMemRead                 0      0.00%    100.00% # Class of committed instruction
system.cpu.op_class_0::FloatMemWrite                0      0.00%    100.00% # Class of committed instruction
system.cpu.op_class_0::IprAccess                    0      0.00%    100.00% # Class of committed instruction
system.cpu.op_class_0::InstPrefetch                 0      0.00%    100.00% # Class of committed instruction
system.cpu.op_class_0::total                116826593                       # Class of committed instruction
system.cpu.tickCycles                       135051194                       # Number of cycles that the object actually ticked
system.cpu.workload.numSyscalls                    33                       # Number of system calls
system.membus.snoop_filter.hit_multi_requests            0                       # Number of requests hitting in the snoop filter with multiple (>1) holders of the requested data.
system.membus.snoop_filter.hit_multi_snoops            0                       # Number of snoops hitting in the snoop filter with multiple (>1) holders of the requested data.
system.membus.snoop_filter.hit_single_requests            0                       # Number of requests hitting in the snoop filter with a single holder of the requested data.
system.membus.snoop_filter.hit_single_snoops            0                       # Number of snoops hitting in the snoop filter with a single holder of the requested data.
system.membus.snoop_filter.tot_requests          5648                       # Total number of requests made to the snoop filter.
system.membus.snoop_filter.tot_snoops               0                       # Total number of snoops made to the snoop filter.
system.tol2bus.snoop_filter.hit_multi_requests         1679                       # Number of requests hitting in the snoop filter with multiple (>1) holders of the requested data.
system.tol2bus.snoop_filter.hit_multi_snoops            0                       # Number of snoops hitting in the snoop filter with multiple (>1) holders of the requested data.
system.tol2bus.snoop_filter.hit_single_requests       163090                       # Number of requests hitting in the snoop filter with a single holder of the requested data.
system.tol2bus.snoop_filter.hit_single_snoops            0                       # Number of snoops hitting in the snoop filter with a single holder of the requested data.
system.tol2bus.snoop_filter.tot_requests       327697                       # Total number of requests made to the snoop filter.
system.tol2bus.snoop_filter.tot_snoops              0                       # Total number of snoops made to the snoop filter.
system.clk_domain.clock                          1000                       # Clock period in ticks
system.cpu.branchPred.lookups                 6105027                       # Number of BP lookups
system.cpu.branchPred.condPredicted           5266478                       # Number of conditional branches predicted
system.cpu.branchPred.condIncorrect            188552                       # Number of conditional branches incorrect
system.cpu.branchPred.BTBLookups              3813527                       # Number of BTB lookups
system.cpu.branchPred.BTBHits                 3808607                       # Number of BTB hits
system.cpu.branchPred.BTBHitPct             99.870986                       # BTB Hit Percentage
system.cpu.branchPred.RASUsed                  257422                       # Number of times the RAS was used to get a target.
system.cpu.branchPred.RASIncorrect                  3                       # Number of incorrect RAS predictions.
system.cpu.branchPred.indirectLookups          154321                       # Number of indirect predictor lookups.
system.cpu.branchPred.indirectHits                236                       # Number of indirect target hits.
system.cpu.branchPred.indirectMisses           154085                       # Number of indirect misses.
system.cpu.branchPred.indirectMispredicted          199                       # Number of mispredicted indirect branches.
system.cpu.dcache.demand_hits::.cpu.data     47499915                       # number of demand (read+write) hits
system.cpu.dcache.demand_hits::total         47499915                       # number of demand (read+write) hits
system.cpu.dcache.overall_hits::.cpu.data     47524878                       # number of overall hits
system.cpu.dcache.overall_hits::total        47524878                       # number of overall hits
system.cpu.dcache.demand_misses::.cpu.data       282467                       # number of demand (read+write) misses
system.cpu.dcache.demand_misses::total         282467                       # number of demand (read+write) misses
system.cpu.dcache.overall_misses::.cpu.data       282724                       # number of overall misses
system.cpu.dcache.overall_misses::total        282724                       # number of overall misses
system.cpu.dcache.demand_miss_latency::.cpu.data   3489458500                       # number of demand (read+write) miss cycles
system.cpu.dcache.demand_miss_latency::total   3489458500                       # number of demand (read+write) miss cycles
system.cpu.dcache.overall_miss_latency::.cpu.data   3489458500                       # number of overall miss cycles
system.cpu.dcache.overall_miss_latency::total   3489458500                       # number of overall miss cycles
system.cpu.dcache.demand_accesses::.cpu.data     47782382                       # number of demand (read+write) accesses
system.cpu.dcache.demand_accesses::total     47782382                       # number of demand (read+write) accesses
system.cpu.dcache.overall_accesses::.cpu.data     47807602                       # number of overall (read+write) accesses
system.cpu.dcache.overall_accesses::total     47807602                       # number of overall (read+write) accesses
system.cpu.dcache.demand_miss_rate::.cpu.data     0.005912                       # miss rate for demand accesses
system.cpu.dcache.demand_miss_rate::total     0.005912                       # miss rate for demand accesses
system.cpu.dcache.overall_miss_rate::.cpu.data     0.005914                       # miss rate for overall accesses
system.cpu.dcache.overall_miss_rate::total     0.005914                       # miss rate for overall accesses
system.cpu.dcache.demand_avg_miss_latency::.cpu.data 12353.508551                       # average overall miss latency
system.cpu.dcache.demand_avg_miss_latency::total 12353.508551                       # average overall miss latency
system.cpu.dcache.overall_avg_miss_latency::.cpu.data 12342.279042                       # average overall miss latency
system.cpu.dcache.overall_avg_miss_latency::total 12342.279042                       # average overall miss latency
system.cpu.dcache.blocked_cycles::no_mshrs          160                       # number of cycles access was blocked
system.cpu.dcache.blocked_cycles::no_targets            0                       # number of cycles access was blocked
system.cpu.dcache.blocked::no_mshrs                 2                       # number of cycles access was blocked
system.cpu.dcache.blocked::no_targets               0                       # number of cycles access was blocked
system.cpu.dcache.avg_blocked_cycles::no_mshrs           80                       # average number of cycles each access was blocked
system.cpu.dcache.avg_blocked_cycles::no_targets          nan                       # average number of cycles each access was blocked
system.cpu.dcache.writebacks::.writebacks       158762                       # number of writebacks
system.cpu.dcache.writebacks::total            158762                       # number of writebacks
system.cpu.dcache.demand_mshr_hits::.cpu.data       119520                       # number of demand (read+write) MSHR hits
system.cpu.dcache.demand_mshr_hits::total       119520                       # number of demand (read+write) MSHR hits
system.cpu.dcache.overall_mshr_hits::.cpu.data       119520                       # number of overall MSHR hits
system.cpu.dcache.overall_mshr_hits::total       119520                       # number of overall MSHR hits
system.cpu.dcache.demand_mshr_misses::.cpu.data       162947                       # number of demand (read+write) MSHR misses
system.cpu.dcache.demand_mshr_misses::total       162947                       # number of demand (read+write) MSHR misses
system.cpu.dcache.overall_mshr_misses::.cpu.data       163194                       # number of overall MSHR misses
system.cpu.dcache.overall_mshr_misses::total       163194                       # number of overall MSHR misses
system.cpu.dcache.demand_mshr_miss_latency::.cpu.data   2249861500                       # number of demand (read+write) MSHR miss cycles
system.cpu.dcache.demand_mshr_miss_latency::total   2249861500                       # number of demand (read+write) MSHR miss cycles
system.cpu.dcache.overall_mshr_miss_latency::.cpu.data   2259678500                       # number of overall MSHR miss cycles
system.cpu.dcache.overall_mshr_miss_latency::total   2259678500                       # number of overall MSHR miss cycles
system.cpu.dcache.demand_mshr_miss_rate::.cpu.data     0.003410                       # mshr miss rate for demand accesses
system.cpu.dcache.demand_mshr_miss_rate::total     0.003410                       # mshr miss rate for demand accesses
system.cpu.dcache.overall_mshr_miss_rate::.cpu.data     0.003414                       # mshr miss rate for overall accesses
system.cpu.dcache.overall_mshr_miss_rate::total     0.003414                       # mshr miss rate for overall accesses
system.cpu.dcache.demand_avg_mshr_miss_latency::.cpu.data 13807.320785                       # average overall mshr miss latency
system.cpu.dcache.demand_avg_mshr_miss_latency::total 13807.320785                       # average overall mshr miss latency
system.cpu.dcache.overall_avg_mshr_miss_latency::.cpu.data 13846.578306                       # average overall mshr miss latency
system.cpu.dcache.overall_avg_mshr_miss_latency::total 13846.578306                       # average overall mshr miss latency
system.cpu.dcache.replacements                 162170                       # number of replacements
system.cpu.dcache.ReadReq_hits::.cpu.data     30280662                       # number of ReadReq hits
system.cpu.dcache.ReadReq_hits::total        30280662                       # number of ReadReq hits
system.cpu.dcache.ReadReq_misses::.cpu.data        27477                       # number of ReadReq misses
system.cpu.dcache.ReadReq_misses::total         27477                       # number of ReadReq misses
system.cpu.dcache.ReadReq_miss_latency::.cpu.data    417834500                       # number of ReadReq miss cycles
system.cpu.dcache.ReadReq_miss_latency::total    417834500                       # number of ReadReq miss cycles
system.cpu.dcache.ReadReq_accesses::.cpu.data     30308139                       # number of ReadReq accesses(hits+misses)
system.cpu.dcache.ReadReq_accesses::total     30308139                       # number of ReadReq accesses(hits+misses)
system.cpu.dcache.ReadReq_miss_rate::.cpu.data     0.000907                       # miss rate for ReadReq accesses
system.cpu.dcache.ReadReq_miss_rate::total     0.000907                       # miss rate for ReadReq accesses
system.cpu.dcache.ReadReq_avg_miss_latency::.cpu.data 15206.700149                       # average ReadReq miss latency
system.cpu.dcache.ReadReq_avg_miss_latency::total 15206.700149                       # average ReadReq miss latency
system.cpu.dcache.ReadReq_mshr_hits::.cpu.data          355                       # number of ReadReq MSHR hits
system.cpu.dcache.ReadReq_mshr_hits::total          355                       # number of ReadReq MSHR hits
system.cpu.dcache.ReadReq_mshr_misses::.cpu.data        27122                       # number of ReadReq MSHR misses
system.cpu.dcache.ReadReq_mshr_misses::total        27122                       # number of ReadReq MSHR misses
system.cpu.dcache.ReadReq_mshr_miss_latency::.cpu.data    380505500                       # number of ReadReq MSHR miss cycles
system.cpu.dcache.ReadReq_mshr_miss_latency::total    380505500                       # number of ReadReq MSHR miss cycles
system.cpu.dcache.ReadReq_mshr_miss_rate::.cpu.data     0.000895                       # mshr miss rate for ReadReq accesses
system.cpu.dcache.ReadReq_mshr_miss_rate::total     0.000895                       # mshr miss rate for ReadReq accesses
system.cpu.dcache.ReadReq_avg_mshr_miss_latency::.cpu.data 14029.404174                       # average ReadReq mshr miss latency
system.cpu.dcache.ReadReq_avg_mshr_miss_latency::total 14029.404174                       # average ReadReq mshr miss latency
system.cpu.dcache.WriteReq_hits::.cpu.data     17219253                       # number of WriteReq hits
system.cpu.dcache.WriteReq_hits::total       17219253                       # number of WriteReq hits
system.cpu.dcache.WriteReq_misses::.cpu.data       254990                       # number of WriteReq misses
system.cpu.dcache.WriteReq_misses::total       254990                       # number of WriteReq misses
system.cpu.dcache.WriteReq_miss_latency::.cpu.data   3071624000                       # number of WriteReq miss cycles
system.cpu.dcache.WriteReq_miss_latency::total   3071624000                       # number of WriteReq miss cycles
system.cpu.dcache.WriteReq_accesses::.cpu.data     17474243                       # number of WriteReq accesses(hits+misses)
system.cpu.dcache.WriteReq_accesses::total     17474243                       # number of WriteReq accesses(hits+misses)
system.cpu.dcache.WriteReq_miss_rate::.cpu.data     0.014592                       # miss rate for WriteReq accesses
system.cpu.dcache.WriteReq_miss_rate::total     0.014592                       # miss rate for WriteReq accesses
system.cpu.dcache.WriteReq_avg_miss_latency::.cpu.data 12046.056708                       # average WriteReq miss latency
system.cpu.dcache.WriteReq_avg_miss_latency::total 12046.056708                       # average WriteReq miss latency
system.cpu.dcache.WriteReq_mshr_hits::.cpu.data       119165                       # number of WriteReq MSHR hits
system.cpu.dcache.WriteReq_mshr_hits::total       119165                       # number of WriteReq MSHR hits
system.cpu.dcache.WriteReq_mshr_misses::.cpu.data       135825                       # number of WriteReq MSHR misses
system.cpu.dcache.WriteReq_mshr_misses::total       135825                       # number of WriteReq MSHR misses
system.cpu.dcache.WriteReq_mshr_miss_latency::.cpu.data   1869356000                       # number of WriteReq MSHR miss cycles
system.cpu.dcache.WriteReq_mshr_miss_latency::total   1869356000                       # number of WriteReq MSHR miss cycles
system.cpu.dcache.WriteReq_mshr_miss_rate::.cpu.data     0.007773                       # mshr miss rate for WriteReq accesses
system.cpu.dcache.WriteReq_mshr_miss_rate::total     0.007773                       # mshr miss rate for WriteReq accesses
system.cpu.dcache.WriteReq_avg_mshr_miss_latency::.cpu.data 13762.974416                       # average WriteReq mshr miss latency
system.cpu.dcache.WriteReq_avg_mshr_miss_latency::total 13762.974416                       # average WriteReq mshr miss latency
system.cpu.dcache.SoftPFReq_hits::.cpu.data        24963                       # number of SoftPFReq hits
system.cpu.dcache.SoftPFReq_hits::total         24963                       # number of SoftPFReq hits
system.cpu.dcache.SoftPFReq_misses::.cpu.data          257                       # number of SoftPFReq misses
system.cpu.dcache.SoftPFReq_misses::total          257                       # number of SoftPFReq misses
system.cpu.dcache.SoftPFReq_accesses::.cpu.data        25220                       # number of SoftPFReq accesses(hits+misses)
system.cpu.dcache.SoftPFReq_accesses::total        25220                       # number of SoftPFReq accesses(hits+misses)
system.cpu.dcache.SoftPFReq_miss_rate::.cpu.data     0.010190                       # miss rate for SoftPFReq accesses
system.cpu.dcache.SoftPFReq_miss_rate::total     0.010190                       # miss rate for SoftPFReq accesses
system.cpu.dcache.SoftPFReq_mshr_misses::.cpu.data          247                       # number of SoftPFReq MSHR misses
system.cpu.dcache.SoftPFReq_mshr_misses::total          247                       # number of SoftPFReq MSHR misses
system.cpu.dcache.SoftPFReq_mshr_miss_latency::.cpu.data      9817000                       # number of SoftPFReq MSHR miss cycles
system.cpu.dcache.SoftPFReq_mshr_miss_latency::total      9817000                       # number of SoftPFReq MSHR miss cycles
system.cpu.dcache.SoftPFReq_mshr_miss_rate::.cpu.data     0.009794                       # mshr miss rate for SoftPFReq accesses
system.cpu.dcache.SoftPFReq_mshr_miss_rate::total     0.009794                       # mshr miss rate for SoftPFReq accesses
system.cpu.dcache.SoftPFReq_avg_mshr_miss_latency::.cpu.data 39744.939271                       # average SoftPFReq mshr miss latency
system.cpu.dcache.SoftPFReq_avg_mshr_miss_latency::total 39744.939271                       # average SoftPFReq mshr miss latency
system.cpu.dcache.LoadLockedReq_hits::.cpu.data          166                       # number of LoadLockedReq hits
system.cpu.dcache.LoadLockedReq_hits::total          166                       # number of LoadLockedReq hits
system.cpu.dcache.LoadLockedReq_accesses::.cpu.data          166                       # number of LoadLockedReq accesses(hits+misses)
system.cpu.dcache.LoadLockedReq_accesses::total          166                       # number of LoadLockedReq accesses(hits+misses)
system.cpu.dcache.StoreCondReq_hits::.cpu.data          166                       # number of StoreCondReq hits
system.cpu.dcache.StoreCondReq_hits::total          166                       # number of StoreCondReq hits
system.cpu.dcache.StoreCondReq_accesses::.cpu.data          166                       # number of StoreCondReq accesses(hits+misses)
system.cpu.dcache.StoreCondReq_accesses::total          166                       # number of StoreCondReq accesses(hits+misses)
system.cpu.dcache.power_state.pwrStateResidencyTicks::UNDEFINED  70067762000                       # Cumulative time (in ticks) in various power states
system.cpu.dcache.tags.tagsinuse          1018.912513                       # Cycle average of tags in use
system.cpu.dcache.tags.total_refs            47688404                       # Total number of references to valid blocks.
system.cpu.dcache.tags.sampled_refs            163194                       # Sample count of references to valid blocks.
system.cpu.dcache.tags.avg_refs            292.219101                       # Average number of references to valid blocks.
system.cpu.dcache.tags.warmup_cycle            176500                       # Cycle when the warmup percentage was hit.
system.cpu.dcache.tags.occ_blocks::.cpu.data  1018.912513                       # Average occupied blocks per requestor
system.cpu.dcache.tags.occ_percent::.cpu.data     0.995032                       # Average percentage of cache occupancy
system.cpu.dcache.tags.occ_percent::total     0.995032                       # Average percentage of cache occupancy
system.cpu.dcache.tags.occ_task_id_blocks::1024         1024                       # Occupied blocks per task id
system.cpu.dcache.tags.age_task_id_blocks_1024::0           30                       # Occupied blocks per task id
system.cpu.dcache.tags.age_task_id_blocks_1024::1           76                       # Occupied blocks per task id
system.cpu.dcache.tags.age_task_id_blocks_1024::2          779                       # Occupied blocks per task id
system.cpu.dcache.tags.age_task_id_blocks_1024::3           96                       # Occupied blocks per task id
system.cpu.dcache.tags.age_task_id_blocks_1024::4           43                       # Occupied blocks per task id
system.cpu.dcache.tags.occ_task_id_percent::1024            1                       # Percentage of cache occupancy per task id
system.cpu.dcache.tags.tag_accesses         191394930                       # Number of tag accesses
system.cpu.dcache.tags.data_accesses        191394930                       # Number of data accesses
system.cpu.dcache.tags.power_state.pwrStateResidencyTicks::UNDEFINED  70067762000                       # Cumulative time (in ticks) in various power states
system.cpu.dtb.instHits                             0                       # ITB inst hits
system.cpu.dtb.instMisses                           0                       # ITB inst misses
system.cpu.dtb.readHits                             0                       # DTB read hits
system.cpu.dtb.readMisses                           0                       # DTB read misses
system.cpu.dtb.writeHits                            0                       # DTB write hits
system.cpu.dtb.writeMisses                          0                       # DTB write misses
system.cpu.dtb.inserts                              0                       # Number of times an entry is inserted into the TLB
system.cpu.dtb.flushTlb                             0                       # Number of times complete TLB was flushed
system.cpu.dtb.flushTlbMva                          0                       # Number of times TLB was flushed by MVA
system.cpu.dtb.flushTlbMvaAsid                      0                       # Number of times TLB was flushed by MVA & ASID
system.cpu.dtb.flushTlbAsid                         0                       # Number of times TLB was flushed by ASID
system.cpu.dtb.flushedEntries                       0                       # Number of entries that have been flushed from TLB
system.cpu.dtb.alignFaults                          0                       # Number of TLB faults due to alignment restrictions
system.cpu.dtb.prefetchFaults                       0                       # Number of TLB faults due to prefetch
system.cpu.dtb.domainFaults                         0                       # Number of TLB faults due to domain restrictions
system.cpu.dtb.permsFaults                          0                       # Number of TLB faults due to permissions restrictions
system.cpu.dtb.readAccesses                         0                       # DTB read accesses
system.cpu.dtb.writeAccesses                        0                       # DTB write accesses
system.cpu.dtb.instAccesses                         0                       # ITB inst accesses
system.cpu.dtb.hits                                 0                       # Total TLB (inst and data) hits
system.cpu.dtb.misses                               0                       # Total TLB (inst and data) misses
system.cpu.dtb.accesses                             0                       # Total TLB (inst and data) accesses
system.cpu.dtb.stage2_mmu.stage2_tlb.instHits            0                       # ITB inst hits
system.cpu.dtb.stage2_mmu.stage2_tlb.instMisses            0                       # ITB inst misses
system.cpu.dtb.stage2_mmu.stage2_tlb.readHits            0                       # DTB read hits
system.cpu.dtb.stage2_mmu.stage2_tlb.readMisses            0                       # DTB read misses
system.cpu.dtb.stage2_mmu.stage2_tlb.writeHits            0                       # DTB write hits
system.cpu.dtb.stage2_mmu.stage2_tlb.writeMisses            0                       # DTB write misses
system.cpu.dtb.stage2_mmu.stage2_tlb.inserts            0                       # Number of times an entry is inserted into the TLB
system.cpu.dtb.stage2_mmu.stage2_tlb.flushTlb            0                       # Number of times complete TLB was flushed
system.cpu.dtb.stage2_mmu.stage2_tlb.flushTlbMva            0                       # Number of times TLB was flushed by MVA
system.cpu.dtb.stage2_mmu.stage2_tlb.flushTlbMvaAsid            0                       # Number of times TLB was flushed by MVA & ASID
system.cpu.dtb.stage2_mmu.stage2_tlb.flushTlbAsid            0                       # Number of times TLB was flushed by ASID
system.cpu.dtb.stage2_mmu.stage2_tlb.flushedEntries            0                       # Number of entries that have been flushed from TLB
system.cpu.dtb.stage2_mmu.stage2_tlb.alignFaults            0                       # Number of TLB faults due to alignment restrictions
system.cpu.dtb.stage2_mmu.stage2_tlb.prefetchFaults            0                       # Number of TLB faults due to prefetch
system.cpu.dtb.stage2_mmu.stage2_tlb.domainFaults            0                       # Number of TLB faults due to domain restrictions
system.cpu.dtb.stage2_mmu.stage2_tlb.permsFaults            0                       # Number of TLB faults due to permissions restrictions
system.cpu.dtb.stage2_mmu.stage2_tlb.readAccesses            0                       # DTB read accesses
system.cpu.dtb.stage2_mmu.stage2_tlb.writeAccesses            0                       # DTB write accesses
system.cpu.dtb.stage2_mmu.stage2_tlb.instAccesses            0                       # ITB inst accesses
system.cpu.dtb.stage2_mmu.stage2_tlb.hits            0                       # Total TLB (inst and data) hits
system.cpu.dtb.stage2_mmu.stage2_tlb.misses            0                       # Total TLB (inst and data) misses
system.cpu.dtb.stage2_mmu.stage2_tlb.accesses            0                       # Total TLB (inst and data) accesses
system.cpu.dtb.stage2_mmu.stage2_tlb.walker.walks            0                       # Table walker walks requested
system.cpu.dtb.stage2_mmu.stage2_tlb.walker.requestOrigin_Requested::Data            0                       # Table walker requests started/completed, data/inst
system.cpu.dtb.stage2_mmu.stage2_tlb.walker.requestOrigin_Requested::Inst            0                       # Table walker requests started/completed, data/inst
system.cpu.dtb.stage2_mmu.stage2_tlb.walker.requestOrigin_Requested::total            0                       # Table walker requests started/completed, data/inst
system.cpu.dtb.stage2_mmu.stage2_tlb.walker.requestOrigin_Completed::Data            0                       # Table walker requests started/completed, data/inst
system.cpu.dtb.stage2_mmu.stage2_tlb.walker.requestOrigin_Completed::Inst            0                       # Table walker requests started/completed, data/inst
system.cpu.dtb.stage2_mmu.stage2_tlb.walker.requestOrigin_Completed::total            0                       # Table walker requests started/completed, data/inst
system.cpu.dtb.stage2_mmu.stage2_tlb.walker.requestOrigin::total            0                       # Table walker requests started/completed, data/inst
system.cpu.dtb.stage2_mmu.stage2_tlb.walker.power_state.pwrStateResidencyTicks::UNDEFINED  70067762000                       # Cumulative time (in ticks) in various power states
system.cpu.dtb.walker.walks                         0                       # Table walker walks requested
system.cpu.dtb.walker.requestOrigin_Requested::Data            0                       # Table walker requests started/completed, data/inst
system.cpu.dtb.walker.requestOrigin_Requested::Inst            0                       # Table walker requests started/completed, data/inst
system.cpu.dtb.walker.requestOrigin_Requested::total            0                       # Table walker requests started/completed, data/inst
system.cpu.dtb.walker.requestOrigin_Completed::Data            0                       # Table walker requests started/completed, data/inst
system.cpu.dtb.walker.requestOrigin_Completed::Inst            0                       # Table walker requests started/completed, data/inst
system.cpu.dtb.walker.requestOrigin_Completed::total            0                       # Table walker requests started/completed, data/inst
system.cpu.dtb.walker.requestOrigin::total            0                       # Table walker requests started/completed, data/inst
system.cpu.dtb.walker.power_state.pwrStateResidencyTicks::UNDEFINED  70067762000                       # Cumulative time (in ticks) in various power states
system.cpu.fetch2.intInstructions            37763894                       # Number of integer instructions successfully decoded
system.cpu.fetch2.fpInstructions                    0                       # Number of floating point instructions successfully decoded
system.cpu.fetch2.vecInstructions                   0                       # Number of SIMD instructions successfully decoded
system.cpu.fetch2.loadInstructions           17245525                       # Number of memory load instructions successfully decoded
system.cpu.fetch2.storeInstructions          14150839                       # Number of memory store instructions successfully decoded
system.cpu.fetch2.amoInstructions                   0                       # Number of memory atomic instructions successfully decoded
system.cpu.icache.demand_hits::.cpu.inst     15474118                       # number of demand (read+write) hits
system.cpu.icache.demand_hits::total         15474118                       # number of demand (read+write) hits
system.cpu.icache.overall_hits::.cpu.inst     15474118                       # number of overall hits
system.cpu.icache.overall_hits::total        15474118                       # number of overall hits
system.cpu.icache.demand_misses::.cpu.inst         1422                       # number of demand (read+write) misses
system.cpu.icache.demand_misses::total           1422                       # number of demand (read+write) misses
system.cpu.icache.overall_misses::.cpu.inst         1422                       # number of overall misses
system.cpu.icache.overall_misses::total          1422                       # number of overall misses
system.cpu.icache.demand_miss_latency::.cpu.inst     96164000                       # number of demand (read+write) miss cycles
system.cpu.icache.demand_miss_latency::total     96164000                       # number of demand (read+write) miss cycles
system.cpu.icache.overall_miss_latency::.cpu.inst     96164000                       # number of overall miss cycles
system.cpu.icache.overall_miss_latency::total     96164000                       # number of overall miss cycles
system.cpu.icache.demand_accesses::.cpu.inst     15475540                       # number of demand (read+write) accesses
system.cpu.icache.demand_accesses::total     15475540                       # number of demand (read+write) accesses
system.cpu.icache.overall_accesses::.cpu.inst     15475540                       # number of overall (read+write) accesses
system.cpu.icache.overall_accesses::total     15475540                       # number of overall (read+write) accesses
system.cpu.icache.demand_miss_rate::.cpu.inst     0.000092                       # miss rate for demand accesses
system.cpu.icache.demand_miss_rate::total     0.000092                       # miss rate for demand accesses
system.cpu.icache.overall_miss_rate::.cpu.inst     0.000092                       # miss rate for overall accesses
system.cpu.icache.overall_miss_rate::total     0.000092                       # miss rate for overall accesses
system.cpu.icache.demand_avg_miss_latency::.cpu.inst 67625.879044                       # average overall miss latency
system.cpu.icache.demand_avg_miss_latency::total 67625.879044                       # average overall miss latency
system.cpu.icache.overall_avg_miss_latency::.cpu.inst 67625.879044                       # average overall miss latency
system.cpu.icache.overall_avg_miss_latency::total 67625.879044                       # average overall miss latency
system.cpu.icache.blocked_cycles::no_mshrs            0                       # number of cycles access was blocked
system.cpu.icache.blocked_cycles::no_targets            0                       # number of cycles access was blocked
system.cpu.icache.blocked::no_mshrs                 0                       # number of cycles access was blocked
system.cpu.icache.blocked::no_targets               0                       # number of cycles access was blocked
system.cpu.icache.avg_blocked_cycles::no_mshrs          nan                       # average number of cycles each access was blocked
system.cpu.icache.avg_blocked_cycles::no_targets          nan                       # average number of cycles each access was blocked
system.cpu.icache.writebacks::.writebacks          911                       # number of writebacks
system.cpu.icache.writebacks::total               911                       # number of writebacks
system.cpu.icache.demand_mshr_misses::.cpu.inst         1422                       # number of demand (read+write) MSHR misses
system.cpu.icache.demand_mshr_misses::total         1422                       # number of demand (read+write) MSHR misses
system.cpu.icache.overall_mshr_misses::.cpu.inst         1422                       # number of overall MSHR misses
system.cpu.icache.overall_mshr_misses::total         1422                       # number of overall MSHR misses
system.cpu.icache.demand_mshr_miss_latency::.cpu.inst     94742000                       # number of demand (read+write) MSHR miss cycles
system.cpu.icache.demand_mshr_miss_latency::total     94742000                       # number of demand (read+write) MSHR miss cycles
system.cpu.icache.overall_mshr_miss_latency::.cpu.inst     94742000                       # number of overall MSHR miss cycles
system.cpu.icache.overall_mshr_miss_latency::total     94742000                       # number of overall MSHR miss cycles
system.cpu.icache.demand_mshr_miss_rate::.cpu.inst     0.000092                       # mshr miss rate for demand accesses
system.cpu.icache.demand_mshr_miss_rate::total     0.000092                       # mshr miss rate for demand accesses
system.cpu.icache.overall_mshr_miss_rate::.cpu.inst     0.000092                       # mshr miss rate for overall accesses
system.cpu.icache.overall_mshr_miss_rate::total     0.000092                       # mshr miss rate for overall accesses
system.cpu.icache.demand_avg_mshr_miss_latency::.cpu.inst 66625.879044                       # average overall mshr miss latency
system.cpu.icache.demand_avg_mshr_miss_latency::total 66625.879044                       # average overall mshr miss latency
system.cpu.icache.overall_avg_mshr_miss_latency::.cpu.inst 66625.879044                       # average overall mshr miss latency
system.cpu.icache.overall_avg_mshr_miss_latency::total 66625.879044                       # average overall mshr miss latency
system.cpu.icache.replacements                    911                       # number of replacements
system.cpu.icache.ReadReq_hits::.cpu.inst     15474118                       # number of ReadReq hits
system.cpu.icache.ReadReq_hits::total        15474118                       # number of ReadReq hits
system.cpu.icache.ReadReq_misses::.cpu.inst         1422                       # number of ReadReq misses
system.cpu.icache.ReadReq_misses::total          1422                       # number of ReadReq misses
system.cpu.icache.ReadReq_miss_latency::.cpu.inst     96164000                       # number of ReadReq miss cycles
system.cpu.icache.ReadReq_miss_latency::total     96164000                       # number of ReadReq miss cycles
system.cpu.icache.ReadReq_accesses::.cpu.inst     15475540                       # number of ReadReq accesses(hits+misses)
system.cpu.icache.ReadReq_accesses::total     15475540                       # number of ReadReq accesses(hits+misses)
system.cpu.icache.ReadReq_miss_rate::.cpu.inst     0.000092                       # miss rate for ReadReq accesses
system.cpu.icache.ReadReq_miss_rate::total     0.000092                       # miss rate for ReadReq accesses
system.cpu.icache.ReadReq_avg_miss_latency::.cpu.inst 67625.879044                       # average ReadReq miss latency
system.cpu.icache.ReadReq_avg_miss_latency::total 67625.879044                       # average ReadReq miss latency
system.cpu.icache.ReadReq_mshr_misses::.cpu.inst         1422                       # number of ReadReq MSHR misses
system.cpu.icache.ReadReq_mshr_misses::total         1422                       # number of ReadReq MSHR misses
system.cpu.icache.ReadReq_mshr_miss_latency::.cpu.inst     94742000                       # number of ReadReq MSHR miss cycles
system.cpu.icache.ReadReq_mshr_miss_latency::total     94742000                       # number of ReadReq MSHR miss cycles
system.cpu.icache.ReadReq_mshr_miss_rate::.cpu.inst     0.000092                       # mshr miss rate for ReadReq accesses
system.cpu.icache.ReadReq_mshr_miss_rate::total     0.000092                       # mshr miss rate for ReadReq accesses
system.cpu.icache.ReadReq_avg_mshr_miss_latency::.cpu.inst 66625.879044                       # average ReadReq mshr miss latency
system.cpu.icache.ReadReq_avg_mshr_miss_latency::total 66625.879044                       # average ReadReq mshr miss latency
system.cpu.icache.power_state.pwrStateResidencyTicks::UNDEFINED  70067762000                       # Cumulative time (in ticks) in various power states
system.cpu.icache.tags.tagsinuse           510.732510                       # Cycle average of tags in use
system.cpu.icache.tags.total_refs            15475540                       # Total number of references to valid blocks.
system.cpu.icache.tags.sampled_refs              1422                       # Sample count of references to valid blocks.
system.cpu.icache.tags.avg_refs          10882.939522                       # Average number of references to valid blocks.
system.cpu.icache.tags.warmup_cycle             87500                       # Cycle when the warmup percentage was hit.
system.cpu.icache.tags.occ_blocks::.cpu.inst   510.732510                       # Average occupied blocks per requestor
system.cpu.icache.tags.occ_percent::.cpu.inst     0.997524                       # Average percentage of cache occupancy
system.cpu.icache.tags.occ_percent::total     0.997524                       # Average percentage of cache occupancy
system.cpu.icache.tags.occ_task_id_blocks::1024          511                       # Occupied blocks per task id
system.cpu.icache.tags.age_task_id_blocks_1024::4          511                       # Occupied blocks per task id
system.cpu.icache.tags.occ_task_id_percent::1024     0.998047                       # Percentage of cache occupancy per task id
system.cpu.icache.tags.tag_accesses          61903582                       # Number of tag accesses
system.cpu.icache.tags.data_accesses         61903582                       # Number of data accesses
system.cpu.icache.tags.power_state.pwrStateResidencyTicks::UNDEFINED  70067762000                       # Cumulative time (in ticks) in various power states
system.cpu.itb.instHits                             0                       # ITB inst hits
system.cpu.itb.instMisses                           0                       # ITB inst misses
system.cpu.itb.readHits                             0                       # DTB read hits
system.cpu.itb.readMisses                           0                       # DTB read misses
system.cpu.itb.writeHits                            0                       # DTB write hits
system.cpu.itb.writeMisses                          0                       # DTB write misses
system.cpu.itb.inserts                              0                       # Number of times an entry is inserted into the TLB
system.cpu.itb.flushTlb                             0                       # Number of times complete TLB was flushed
system.cpu.itb.flushTlbMva                          0                       # Number of times TLB was flushed by MVA
system.cpu.itb.flushTlbMvaAsid                      0                       # Number of times TLB was flushed by MVA & ASID
system.cpu.itb.flushTlbAsid                         0                       # Number of times TLB was flushed by ASID
system.cpu.itb.flushedEntries                       0                       # Number of entries that have been flushed from TLB
system.cpu.itb.alignFaults                          0                       # Number of TLB faults due to alignment restrictions
system.cpu.itb.prefetchFaults                       0                       # Number of TLB faults due to prefetch
system.cpu.itb.domainFaults                         0                       # Number of TLB faults due to domain restrictions
system.cpu.itb.permsFaults                          0                       # Number of TLB faults due to permissions restrictions
system.cpu.itb.readAccesses                         0                       # DTB read accesses
system.cpu.itb.writeAccesses                        0                       # DTB write accesses
system.cpu.itb.instAccesses                         0                       # ITB inst accesses
system.cpu.itb.hits                                 0                       # Total TLB (inst and data) hits
system.cpu.itb.misses                               0                       # Total TLB (inst and data) misses
system.cpu.itb.accesses                             0                       # Total TLB (inst and data) accesses
system.cpu.itb.stage2_mmu.stage2_tlb.instHits            0                       # ITB inst hits
system.cpu.itb.stage2_mmu.stage2_tlb.instMisses            0                       # ITB inst misses
system.cpu.itb.stage2_mmu.stage2_tlb.readHits            0                       # DTB read hits
system.cpu.itb.stage2_mmu.stage2_tlb.readMisses            0                       # DTB read misses
system.cpu.itb.stage2_mmu.stage2_tlb.writeHits            0                       # DTB write hits
system.cpu.itb.stage2_mmu.stage2_tlb.writeMisses            0                       # DTB write misses
system.cpu.itb.stage2_mmu.stage2_tlb.inserts            0                       # Number of times an entry is inserted into the TLB
system.cpu.itb.stage2_mmu.stage2_tlb.flushTlb            0                       # Number of times complete TLB was flushed
system.cpu.itb.stage2_mmu.stage2_tlb.flushTlbMva            0                       # Number of times TLB was flushed by MVA
system.cpu.itb.stage2_mmu.stage2_tlb.flushTlbMvaAsid            0                       # Number of times TLB was flushed by MVA & ASID
system.cpu.itb.stage2_mmu.stage2_tlb.flushTlbAsid            0                       # Number of times TLB was flushed by ASID
system.cpu.itb.stage2_mmu.stage2_tlb.flushedEntries            0                       # Number of entries that have been flushed from TLB
system.cpu.itb.stage2_mmu.stage2_tlb.alignFaults            0                       # Number of TLB faults due to alignment restrictions
system.cpu.itb.stage2_mmu.stage2_tlb.prefetchFaults            0                       # Number of TLB faults due to prefetch
system.cpu.itb.stage2_mmu.stage2_tlb.domainFaults            0                       # Number of TLB faults due to domain restrictions
system.cpu.itb.stage2_mmu.stage2_tlb.permsFaults            0                       # Number of TLB faults due to permissions restrictions
system.cpu.itb.stage2_mmu.stage2_tlb.readAccesses            0                       # DTB read accesses
system.cpu.itb.stage2_mmu.stage2_tlb.writeAccesses            0                       # DTB write accesses
system.cpu.itb.stage2_mmu.stage2_tlb.instAccesses            0                       # ITB inst accesses
system.cpu.itb.stage2_mmu.stage2_tlb.hits            0                       # Total TLB (inst and data) hits
system.cpu.itb.stage2_mmu.stage2_tlb.misses            0                       # Total TLB (inst and data) misses
system.cpu.itb.stage2_mmu.stage2_tlb.accesses            0                       # Total TLB (inst and data) accesses
system.cpu.itb.stage2_mmu.stage2_tlb.walker.walks            0                       # Table walker walks requested
system.cpu.itb.stage2_mmu.stage2_tlb.walker.requestOrigin_Requested::Data            0                       # Table walker requests started/completed, data/inst
system.cpu.itb.stage2_mmu.stage2_tlb.walker.requestOrigin_Requested::Inst            0                       # Table walker requests started/completed, data/inst
system.cpu.itb.stage2_mmu.stage2_tlb.walker.requestOrigin_Requested::total            0                       # Table walker requests started/completed, data/inst
system.cpu.itb.stage2_mmu.stage2_tlb.walker.requestOrigin_Completed::Data            0                       # Table walker requests started/completed, data/inst
system.cpu.itb.stage2_mmu.stage2_tlb.walker.requestOrigin_Completed::Inst            0                       # Table walker requests started/completed, data/inst
system.cpu.itb.stage2_mmu.stage2_tlb.walker.requestOrigin_Completed::total            0                       # Table walker requests started/completed, data/inst
system.cpu.itb.stage2_mmu.stage2_tlb.walker.requestOrigin::total            0                       # Table walker requests started/completed, data/inst
system.cpu.itb.stage2_mmu.stage2_tlb.walker.power_state.pwrStateResidencyTicks::UNDEFINED  70067762000                       # Cumulative time (in ticks) in various power states
system.cpu.itb.walker.walks                         0                       # Table walker walks requested
system.cpu.itb.walker.requestOrigin_Requested::Data            0                       # Table walker requests started/completed, data/inst
system.cpu.itb.walker.requestOrigin_Requested::Inst            0                       # Table walker requests started/completed, data/inst
system.cpu.itb.walker.requestOrigin_Requested::total            0                       # Table walker requests started/completed, data/inst
system.cpu.itb.walker.requestOrigin_Completed::Data            0                       # Table walker requests started/completed, data/inst
system.cpu.itb.walker.requestOrigin_Completed::Inst            0                       # Table walker requests started/completed, data/inst
system.cpu.itb.walker.requestOrigin_Completed::total            0                       # Table walker requests started/completed, data/inst
system.cpu.itb.walker.requestOrigin::total            0                       # Table walker requests started/completed, data/inst
system.cpu.itb.walker.power_state.pwrStateResidencyTicks::UNDEFINED  70067762000                       # Cumulative time (in ticks) in various power states
system.cpu.power_state.pwrStateResidencyTicks::ON  70067762000                       # Cumulative time (in ticks) in various power states
system.cpu.thread0.numInsts                 100000000                       # Number of Instructions committed
system.cpu.thread0.numOps                   116826593                       # Number of Ops committed
system.cpu.thread0.numMemRefs                       0                       # Number of Memory References
system.cpu_clk_domain.clock                       500                       # Clock period in ticks
system.cpu_voltage_domain.voltage                   1                       # Voltage in Volts
system.l2.demand_hits::.cpu.inst                  245                       # number of demand (read+write) hits
system.l2.demand_hits::.cpu.data               158716                       # number of demand (read+write) hits
system.l2.demand_hits::total                   158961                       # number of demand (read+write) hits
system.l2.overall_hits::.cpu.inst                 245                       # number of overall hits
system.l2.overall_hits::.cpu.data              158716                       # number of overall hits
system.l2.overall_hits::total                  158961                       # number of overall hits
system.l2.demand_misses::.cpu.inst               1177                       # number of demand (read+write) misses
system.l2.demand_misses::.cpu.data               4478                       # number of demand (read+write) misses
system.l2.demand_misses::total                   5655                       # number of demand (read+write) misses
system.l2.overall_misses::.cpu.inst              1177                       # number of overall misses
system.l2.overall_misses::.cpu.data              4478                       # number of overall misses
system.l2.overall_misses::total                  5655                       # number of overall misses
system.l2.demand_miss_latency::.cpu.inst     89984500                       # number of demand (read+write) miss cycles
system.l2.demand_miss_latency::.cpu.data    343063000                       # number of demand (read+write) miss cycles
system.l2.demand_miss_latency::total        433047500                       # number of demand (read+write) miss cycles
system.l2.overall_miss_latency::.cpu.inst     89984500                       # number of overall miss cycles
system.l2.overall_miss_latency::.cpu.data    343063000                       # number of overall miss cycles
system.l2.overall_miss_latency::total       433047500                       # number of overall miss cycles
system.l2.demand_accesses::.cpu.inst             1422                       # number of demand (read+write) accesses
system.l2.demand_accesses::.cpu.data           163194                       # number of demand (read+write) accesses
system.l2.demand_accesses::total               164616                       # number of demand (read+write) accesses
system.l2.overall_accesses::.cpu.inst            1422                       # number of overall (read+write) accesses
system.l2.overall_accesses::.cpu.data          163194                       # number of overall (read+write) accesses
system.l2.overall_accesses::total              164616                       # number of overall (read+write) accesses
system.l2.demand_miss_rate::.cpu.inst        0.827707                       # miss rate for demand accesses
system.l2.demand_miss_rate::.cpu.data        0.027440                       # miss rate for demand accesses
system.l2.demand_miss_rate::total            0.034353                       # miss rate for demand accesses
system.l2.overall_miss_rate::.cpu.inst       0.827707                       # miss rate for overall accesses
system.l2.overall_miss_rate::.cpu.data       0.027440                       # miss rate for overall accesses
system.l2.overall_miss_rate::total           0.034353                       # miss rate for overall accesses
system.l2.demand_avg_miss_latency::.cpu.inst 76452.421410                       # average overall miss latency
system.l2.demand_avg_miss_latency::.cpu.data 76610.763734                       # average overall miss latency
system.l2.demand_avg_miss_latency::total 76577.807250                       # average overall miss latency
system.l2.overall_avg_miss_latency::.cpu.inst 76452.421410                       # average overall miss latency
system.l2.overall_avg_miss_latency::.cpu.data 76610.763734                       # average overall miss latency
system.l2.overall_avg_miss_latency::total 76577.807250                       # average overall miss latency
system.l2.blocked_cycles::no_mshrs                  0                       # number of cycles access was blocked
system.l2.blocked_cycles::no_targets                0                       # number of cycles access was blocked
system.l2.blocked::no_mshrs                         0                       # number of cycles access was blocked
system.l2.blocked::no_targets                       0                       # number of cycles access was blocked
system.l2.avg_blocked_cycles::no_mshrs            nan                       # average number of cycles each access was blocked
system.l2.avg_blocked_cycles::no_targets          nan                       # average number of cycles each access was blocked
system.l2.demand_mshr_hits::.cpu.inst               2                       # number of demand (read+write) MSHR hits
system.l2.demand_mshr_hits::.cpu.data               5                       # number of demand (read+write) MSHR hits
system.l2.demand_mshr_hits::total                   7                       # number of demand (read+write) MSHR hits
system.l2.overall_mshr_hits::.cpu.inst              2                       # number of overall MSHR hits
system.l2.overall_mshr_hits::.cpu.data              5                       # number of overall MSHR hits
system.l2.overall_mshr_hits::total                  7                       # number of overall MSHR hits
system.l2.demand_mshr_misses::.cpu.inst          1175                       # number of demand (read+write) MSHR misses
system.l2.demand_mshr_misses::.cpu.data          4473                       # number of demand (read+write) MSHR misses
system.l2.demand_mshr_misses::total              5648                       # number of demand (read+write) MSHR misses
system.l2.overall_mshr_misses::.cpu.inst         1175                       # number of overall MSHR misses
system.l2.overall_mshr_misses::.cpu.data         4473                       # number of overall MSHR misses
system.l2.overall_mshr_misses::total             5648                       # number of overall MSHR misses
system.l2.demand_mshr_miss_latency::.cpu.inst     78152500                       # number of demand (read+write) MSHR miss cycles
system.l2.demand_mshr_miss_latency::.cpu.data    298000500                       # number of demand (read+write) MSHR miss cycles
system.l2.demand_mshr_miss_latency::total    376153000                       # number of demand (read+write) MSHR miss cycles
system.l2.overall_mshr_miss_latency::.cpu.inst     78152500                       # number of overall MSHR miss cycles
system.l2.overall_mshr_miss_latency::.cpu.data    298000500                       # number of overall MSHR miss cycles
system.l2.overall_mshr_miss_latency::total    376153000                       # number of overall MSHR miss cycles
system.l2.demand_mshr_miss_rate::.cpu.inst     0.826301                       # mshr miss rate for demand accesses
system.l2.demand_mshr_miss_rate::.cpu.data     0.027409                       # mshr miss rate for demand accesses
system.l2.demand_mshr_miss_rate::total       0.034310                       # mshr miss rate for demand accesses
system.l2.overall_mshr_miss_rate::.cpu.inst     0.826301                       # mshr miss rate for overall accesses
system.l2.overall_mshr_miss_rate::.cpu.data     0.027409                       # mshr miss rate for overall accesses
system.l2.overall_mshr_miss_rate::total      0.034310                       # mshr miss rate for overall accesses
system.l2.demand_avg_mshr_miss_latency::.cpu.inst 66512.765957                       # average overall mshr miss latency
system.l2.demand_avg_mshr_miss_latency::.cpu.data 66622.065728                       # average overall mshr miss latency
system.l2.demand_avg_mshr_miss_latency::total 66599.327195                       # average overall mshr miss latency
system.l2.overall_avg_mshr_miss_latency::.cpu.inst 66512.765957                       # average overall mshr miss latency
system.l2.overall_avg_mshr_miss_latency::.cpu.data 66622.065728                       # average overall mshr miss latency
system.l2.overall_avg_mshr_miss_latency::total 66599.327195                       # average overall mshr miss latency
system.l2.replacements                              0                       # number of replacements
system.l2.WritebackDirty_hits::.writebacks       158762                       # number of WritebackDirty hits
system.l2.WritebackDirty_hits::total           158762                       # number of WritebackDirty hits
system.l2.WritebackDirty_accesses::.writebacks       158762                       # number of WritebackDirty accesses(hits+misses)
system.l2.WritebackDirty_accesses::total       158762                       # number of WritebackDirty accesses(hits+misses)
system.l2.WritebackClean_hits::.writebacks          873                       # number of WritebackClean hits
system.l2.WritebackClean_hits::total              873                       # number of WritebackClean hits
system.l2.WritebackClean_accesses::.writebacks          873                       # number of WritebackClean accesses(hits+misses)
system.l2.WritebackClean_accesses::total          873                       # number of WritebackClean accesses(hits+misses)
system.l2.ReadExReq_hits::.cpu.data            132144                       # number of ReadExReq hits
system.l2.ReadExReq_hits::total                132144                       # number of ReadExReq hits
system.l2.ReadExReq_misses::.cpu.data            3681                       # number of ReadExReq misses
system.l2.ReadExReq_misses::total                3681                       # number of ReadExReq misses
system.l2.ReadExReq_miss_latency::.cpu.data    277944000                       # number of ReadExReq miss cycles
system.l2.ReadExReq_miss_latency::total     277944000                       # number of ReadExReq miss cycles
system.l2.ReadExReq_accesses::.cpu.data        135825                       # number of ReadExReq accesses(hits+misses)
system.l2.ReadExReq_accesses::total            135825                       # number of ReadExReq accesses(hits+misses)
system.l2.ReadExReq_miss_rate::.cpu.data     0.027101                       # miss rate for ReadExReq accesses
system.l2.ReadExReq_miss_rate::total         0.027101                       # miss rate for ReadExReq accesses
system.l2.ReadExReq_avg_miss_latency::.cpu.data 75507.742461                       # average ReadExReq miss latency
system.l2.ReadExReq_avg_miss_latency::total 75507.742461                       # average ReadExReq miss latency
system.l2.ReadExReq_mshr_misses::.cpu.data         3681                       # number of ReadExReq MSHR misses
system.l2.ReadExReq_mshr_misses::total           3681                       # number of ReadExReq MSHR misses
system.l2.ReadExReq_mshr_miss_latency::.cpu.data    241134000                       # number of ReadExReq MSHR miss cycles
system.l2.ReadExReq_mshr_miss_latency::total    241134000                       # number of ReadExReq MSHR miss cycles
system.l2.ReadExReq_mshr_miss_rate::.cpu.data     0.027101                       # mshr miss rate for ReadExReq accesses
system.l2.ReadExReq_mshr_miss_rate::total     0.027101                       # mshr miss rate for ReadExReq accesses
system.l2.ReadExReq_avg_mshr_miss_latency::.cpu.data 65507.742461                       # average ReadExReq mshr miss latency
system.l2.ReadExReq_avg_mshr_miss_latency::total 65507.742461                       # average ReadExReq mshr miss latency
system.l2.ReadCleanReq_hits::.cpu.inst            245                       # number of ReadCleanReq hits
system.l2.ReadCleanReq_hits::total                245                       # number of ReadCleanReq hits
system.l2.ReadCleanReq_misses::.cpu.inst         1177                       # number of ReadCleanReq misses
system.l2.ReadCleanReq_misses::total             1177                       # number of ReadCleanReq misses
system.l2.ReadCleanReq_miss_latency::.cpu.inst     89984500                       # number of ReadCleanReq miss cycles
system.l2.ReadCleanReq_miss_latency::total     89984500                       # number of ReadCleanReq miss cycles
system.l2.ReadCleanReq_accesses::.cpu.inst         1422                       # number of ReadCleanReq accesses(hits+misses)
system.l2.ReadCleanReq_accesses::total           1422                       # number of ReadCleanReq accesses(hits+misses)
system.l2.ReadCleanReq_miss_rate::.cpu.inst     0.827707                       # miss rate for ReadCleanReq accesses
system.l2.ReadCleanReq_miss_rate::total      0.827707                       # miss rate for ReadCleanReq accesses
system.l2.ReadCleanReq_avg_miss_latency::.cpu.inst 76452.421410                       # average ReadCleanReq miss latency
system.l2.ReadCleanReq_avg_miss_latency::total 76452.421410                       # average ReadCleanReq miss latency
system.l2.ReadCleanReq_mshr_hits::.cpu.inst            2                       # number of ReadCleanReq MSHR hits
system.l2.ReadCleanReq_mshr_hits::total             2                       # number of ReadCleanReq MSHR hits
system.l2.ReadCleanReq_mshr_misses::.cpu.inst         1175                       # number of ReadCleanReq MSHR misses
system.l2.ReadCleanReq_mshr_misses::total         1175                       # number of ReadCleanReq MSHR misses
system.l2.ReadCleanReq_mshr_miss_latency::.cpu.inst     78152500                       # number of ReadCleanReq MSHR miss cycles
system.l2.ReadCleanReq_mshr_miss_latency::total     78152500                       # number of ReadCleanReq MSHR miss cycles
system.l2.ReadCleanReq_mshr_miss_rate::.cpu.inst     0.826301                       # mshr miss rate for ReadCleanReq accesses
system.l2.ReadCleanReq_mshr_miss_rate::total     0.826301                       # mshr miss rate for ReadCleanReq accesses
system.l2.ReadCleanReq_avg_mshr_miss_latency::.cpu.inst 66512.765957                       # average ReadCleanReq mshr miss latency
system.l2.ReadCleanReq_avg_mshr_miss_latency::total 66512.765957                       # average ReadCleanReq mshr miss latency
system.l2.ReadSharedReq_hits::.cpu.data         26572                       # number of ReadSharedReq hits
system.l2.ReadSharedReq_hits::total             26572                       # number of ReadSharedReq hits
system.l2.ReadSharedReq_misses::.cpu.data          797                       # number of ReadSharedReq misses
system.l2.ReadSharedReq_misses::total             797                       # number of ReadSharedReq misses
system.l2.ReadSharedReq_miss_latency::.cpu.data     65119000                       # number of ReadSharedReq miss cycles
system.l2.ReadSharedReq_miss_latency::total     65119000                       # number of ReadSharedReq miss cycles
system.l2.ReadSharedReq_accesses::.cpu.data        27369                       # number of ReadSharedReq accesses(hits+misses)
system.l2.ReadSharedReq_accesses::total         27369                       # number of ReadSharedReq accesses(hits+misses)
system.l2.ReadSharedReq_miss_rate::.cpu.data     0.029121                       # miss rate for ReadSharedReq accesses
system.l2.ReadSharedReq_miss_rate::total     0.029121                       # miss rate for ReadSharedReq accesses
system.l2.ReadSharedReq_avg_miss_latency::.cpu.data 81705.144291                       # average ReadSharedReq miss latency
system.l2.ReadSharedReq_avg_miss_latency::total 81705.144291                       # average ReadSharedReq miss latency
system.l2.ReadSharedReq_mshr_hits::.cpu.data            5                       # number of ReadSharedReq MSHR hits
system.l2.ReadSharedReq_mshr_hits::total            5                       # number of ReadSharedReq MSHR hits
system.l2.ReadSharedReq_mshr_misses::.cpu.data          792                       # number of ReadSharedReq MSHR misses
system.l2.ReadSharedReq_mshr_misses::total          792                       # number of ReadSharedReq MSHR misses
system.l2.ReadSharedReq_mshr_miss_latency::.cpu.data     56866500                       # number of ReadSharedReq MSHR miss cycles
system.l2.ReadSharedReq_mshr_miss_latency::total     56866500                       # number of ReadSharedReq MSHR miss cycles
system.l2.ReadSharedReq_mshr_miss_rate::.cpu.data     0.028938                       # mshr miss rate for ReadSharedReq accesses
system.l2.ReadSharedReq_mshr_miss_rate::total     0.028938                       # mshr miss rate for ReadSharedReq accesses
system.l2.ReadSharedReq_avg_mshr_miss_latency::.cpu.data 71801.136364                       # average ReadSharedReq mshr miss latency
system.l2.ReadSharedReq_avg_mshr_miss_latency::total 71801.136364                       # average ReadSharedReq mshr miss latency
system.l2.power_state.pwrStateResidencyTicks::UNDEFINED  70067762000                       # Cumulative time (in ticks) in various power states
system.l2.tags.tagsinuse                  5546.564852                       # Cycle average of tags in use
system.l2.tags.total_refs                      326011                       # Total number of references to valid blocks.
system.l2.tags.sampled_refs                      5648                       # Sample count of references to valid blocks.
system.l2.tags.avg_refs                     57.721494                       # Average number of references to valid blocks.
system.l2.tags.warmup_cycle                     77000                       # Cycle when the warmup percentage was hit.
system.l2.tags.occ_blocks::.cpu.inst      1171.620108                       # Average occupied blocks per requestor
system.l2.tags.occ_blocks::.cpu.data      4374.944745                       # Average occupied blocks per requestor
system.l2.tags.occ_percent::.cpu.inst        0.035755                       # Average percentage of cache occupancy
system.l2.tags.occ_percent::.cpu.data        0.133513                       # Average percentage of cache occupancy
system.l2.tags.occ_percent::total            0.169268                       # Average percentage of cache occupancy
system.l2.tags.occ_task_id_blocks::1024          5648                       # Occupied blocks per task id
system.l2.tags.age_task_id_blocks_1024::4         5648                       # Occupied blocks per task id
system.l2.tags.occ_task_id_percent::1024     0.172363                       # Percentage of cache occupancy per task id
system.l2.tags.tag_accesses                   2613792                       # Number of tag accesses
system.l2.tags.data_accesses                  2613792                       # Number of data accesses
system.l2.tags.power_state.pwrStateResidencyTicks::UNDEFINED  70067762000                       # Cumulative time (in ticks) in various power states
system.mem_ctrls.avgPriority_.cpu.inst::samples      1175.00                       # Average QoS priority value for accepted requests
system.mem_ctrls.avgPriority_.cpu.data::samples      4473.00                       # Average QoS priority value for accepted requests
system.mem_ctrls.priorityMinLatency      0.000000018750                       # per QoS priority minimum request to response latency (s)
system.mem_ctrls.priorityMaxLatency      0.000000577500                       # per QoS priority maximum request to response latency (s)
system.mem_ctrls.numReadWriteTurnArounds            0                       # Number of turnarounds from READ to WRITE
system.mem_ctrls.numWriteReadTurnArounds            0                       # Number of turnarounds from WRITE to READ
system.mem_ctrls.numStayReadState               29274                       # Number of times bus staying in READ state
system.mem_ctrls.numStayWriteState                  0                       # Number of times bus staying in WRITE state
system.mem_ctrls.readReqs                        5648                       # Number of read requests accepted
system.mem_ctrls.writeReqs                          0                       # Number of write requests accepted
system.mem_ctrls.readBursts                      5648                       # Number of controller read bursts, including those serviced by the write queue
system.mem_ctrls.writeBursts                        0                       # Number of controller write bursts, including those merged in the write queue
system.mem_ctrls.servicedByWrQ                      0                       # Number of controller read bursts serviced by the write queue
system.mem_ctrls.mergedWrBursts                     0                       # Number of controller write bursts merged with an existing one
system.mem_ctrls.neitherReadNorWriteReqs            0                       # Number of requests that are neither read nor write
system.mem_ctrls.avgRdQLen                       1.00                       # Average read queue length when enqueuing
system.mem_ctrls.avgWrQLen                       0.00                       # Average write queue length when enqueuing
system.mem_ctrls.numRdRetry                         0                       # Number of times read queue was full causing retry
system.mem_ctrls.numWrRetry                         0                       # Number of times write queue was full causing retry
system.mem_ctrls.readPktSize::0                     0                       # Read request sizes (log2)
system.mem_ctrls.readPktSize::1                     0                       # Read request sizes (log2)
system.mem_ctrls.readPktSize::2                     0                       # Read request sizes (log2)
system.mem_ctrls.readPktSize::3                     0                       # Read request sizes (log2)
system.mem_ctrls.readPktSize::4                     0                       # Read request sizes (log2)
system.mem_ctrls.readPktSize::5                     0                       # Read request sizes (log2)
system.mem_ctrls.readPktSize::6                  5648                       # Read request sizes (log2)
system.mem_ctrls.writePktSize::0                    0                       # Write request sizes (log2)
system.mem_ctrls.writePktSize::1                    0                       # Write request sizes (log2)
system.mem_ctrls.writePktSize::2                    0                       # Write request sizes (log2)
system.mem_ctrls.writePktSize::3                    0                       # Write request sizes (log2)
system.mem_ctrls.writePktSize::4                    0                       # Write request sizes (log2)
system.mem_ctrls.writePktSize::5                    0                       # Write request sizes (log2)
system.mem_ctrls.writePktSize::6                    0                       # Write request sizes (log2)
system.mem_ctrls.rdQLenPdf::0                    5202                       # What read queue length does an incoming req see
system.mem_ctrls.rdQLenPdf::1                     417                       # What read queue length does an incoming req see
system.mem_ctrls.rdQLenPdf::2                      27                       # What read queue length does an incoming req see
system.mem_ctrls.rdQLenPdf::3                       2                       # What read queue length does an incoming req see
system.mem_ctrls.rdQLenPdf::4                       0                       # What read queue length does an incoming req see
system.mem_ctrls.rdQLenPdf::5                       0                       # What read queue length does an incoming req see
system.mem_ctrls.rdQLenPdf::6                       0                       # What read queue length does an incoming req see
system.mem_ctrls.rdQLenPdf::7                       0                       # What read queue length does an incoming req see
system.mem_ctrls.rdQLenPdf::8                       0                       # What read queue length does an incoming req see
system.mem_ctrls.rdQLenPdf::9                       0                       # What read queue length does an incoming req see
system.mem_ctrls.rdQLenPdf::10                      0                       # What read queue length does an incoming req see
system.mem_ctrls.rdQLenPdf::11                      0                       # What read queue length does an incoming req see
system.mem_ctrls.rdQLenPdf::12                      0                       # What read queue length does an incoming req see
system.mem_ctrls.rdQLenPdf::13                      0                       # What read queue length does an incoming req see
system.mem_ctrls.rdQLenPdf::14                      0                       # What read queue length does an incoming req see
system.mem_ctrls.rdQLenPdf::15                      0                       # What read queue length does an incoming req see
[...]
system.mem_ctrls.dram.bw_read::.cpu.data      4085645                       # Total read bandwidth from this memory (bytes/s)
system.mem_ctrls.dram.bw_read::total          5158892                       # Total read bandwidth from this memory (bytes/s)
system.mem_ctrls.dram.bw_inst_read::.cpu.inst      1073247                       # Instruction read bandwidth from this memory (bytes/s)
system.mem_ctrls.dram.bw_inst_read::total      1073247                       # Instruction read bandwidth from this memory (bytes/s)
system.mem_ctrls.dram.bw_total::.cpu.inst      1073247                       # Total bandwidth to/from this memory (bytes/s)
system.mem_ctrls.dram.bw_total::.cpu.data      4085645                       # Total bandwidth to/from this memory (bytes/s)
system.mem_ctrls.dram.bw_total::total         5158892                       # Total bandwidth to/from this memory (bytes/s)
system.mem_ctrls.dram.readBursts                 5648                       # Number of DRAM read bursts
system.mem_ctrls.dram.writeBursts                   0                       # Number of DRAM write bursts
system.mem_ctrls.dram.perBankRdBursts::0          420                       # Per bank write bursts
system.mem_ctrls.dram.perBankRdBursts::1          398                       # Per bank write bursts
system.mem_ctrls.dram.perBankRdBursts::2          364                       # Per bank write bursts
system.mem_ctrls.dram.perBankRdBursts::3          335                       # Per bank write bursts
system.mem_ctrls.dram.perBankRdBursts::4          352                       # Per bank write bursts
system.mem_ctrls.dram.perBankRdBursts::5          301                       # Per bank write bursts
system.mem_ctrls.dram.perBankRdBursts::6          376                       # Per bank write bursts
system.mem_ctrls.dram.perBankRdBursts::7          370                       # Per bank write bursts
system.mem_ctrls.dram.perBankRdBursts::8          224                       # Per bank write bursts
system.mem_ctrls.dram.perBankRdBursts::9          330                       # Per bank write bursts
system.mem_ctrls.dram.perBankRdBursts::10          294                       # Per bank write bursts
system.mem_ctrls.dram.perBankRdBursts::11          347                       # Per bank write bursts
system.mem_ctrls.dram.perBankRdBursts::12          372                       # Per bank write bursts
system.mem_ctrls.dram.perBankRdBursts::13          409                       # Per bank write bursts
system.mem_ctrls.dram.perBankRdBursts::14          422                       # Per bank write bursts
system.mem_ctrls.dram.perBankRdBursts::15          334                       # Per bank write bursts
system.mem_ctrls.dram.perBankWrBursts::0            0                       # Per bank write bursts
system.mem_ctrls.dram.perBankWrBursts::1            0                       # Per bank write bursts
system.mem_ctrls.dram.perBankWrBursts::2            0                       # Per bank write bursts
system.mem_ctrls.dram.perBankWrBursts::3            0                       # Per bank write bursts
system.mem_ctrls.dram.perBankWrBursts::4            0                       # Per bank write bursts
system.mem_ctrls.dram.perBankWrBursts::5            0                       # Per bank write bursts
system.mem_ctrls.dram.perBankWrBursts::6            0                       # Per bank write bursts
system.mem_ctrls.dram.perBankWrBursts::7            0                       # Per bank write bursts
system.mem_ctrls.dram.perBankWrBursts::8            0                       # Per bank write bursts
system.mem_ctrls.dram.perBankWrBursts::9            0                       # Per bank write bursts
system.mem_ctrls.dram.perBankWrBursts::10            0                       # Per bank write bursts
system.mem_ctrls.dram.perBankWrBursts::11            0                       # Per bank write bursts
system.mem_ctrls.dram.perBankWrBursts::12            0                       # Per bank write bursts
system.mem_ctrls.dram.perBankWrBursts::13            0                       # Per bank write bursts
system.mem_ctrls.dram.perBankWrBursts::14            0                       # Per bank write bursts
system.mem_ctrls.dram.perBankWrBursts::15            0                       # Per bank write bursts
system.mem_ctrls.dram.totQLat                38369750                       # Total ticks spent queuing
system.mem_ctrls.dram.totBusLat              28240000                       # Total ticks spent in databus transfers
system.mem_ctrls.dram.totMemAccLat          144269750                       # Total ticks spent from burst creation until serviced by the DRAM
system.mem_ctrls.dram.avgQLat                 6793.51                       # Average queueing delay per DRAM burst
system.mem_ctrls.dram.avgBusLat               5000.00                       # Average bus latency per DRAM burst
system.mem_ctrls.dram.avgMemAccLat           25543.51                       # Average memory access latency per DRAM burst
system.mem_ctrls.dram.readRowHits                4762                       # Number of row buffer hits during reads
system.mem_ctrls.dram.writeRowHits                  0                       # Number of row buffer hits during writes
system.mem_ctrls.dram.readRowHitRate            84.31                       # Row buffer hit rate for reads
system.mem_ctrls.dram.writeRowHitRate             nan                       # Row buffer hit rate for writes
system.mem_ctrls.dram.bytesPerActivate::samples          886                       # Bytes accessed per row activation
system.mem_ctrls.dram.bytesPerActivate::mean   407.981941                       # Bytes accessed per row activation
system.mem_ctrls.dram.bytesPerActivate::gmean   263.804110                       # Bytes accessed per row activation
system.mem_ctrls.dram.bytesPerActivate::stdev   347.156611                       # Bytes accessed per row activation
system.mem_ctrls.dram.bytesPerActivate::0-127          195     22.01%     22.01% # Bytes accessed per row activation
system.mem_ctrls.dram.bytesPerActivate::128-255          208     23.48%     45.49% # Bytes accessed per row activation
system.mem_ctrls.dram.bytesPerActivate::256-383           98     11.06%     56.55% # Bytes accessed per row activation
system.mem_ctrls.dram.bytesPerActivate::384-511          114     12.87%     69.41% # Bytes accessed per row activation
system.mem_ctrls.dram.bytesPerActivate::512-639           30      3.39%     72.80% # Bytes accessed per row activation
system.mem_ctrls.dram.bytesPerActivate::640-767           26      2.93%     75.73% # Bytes accessed per row activation
system.mem_ctrls.dram.bytesPerActivate::768-895           32      3.61%     79.35% # Bytes accessed per row activation
system.mem_ctrls.dram.bytesPerActivate::896-1023           60      6.77%     86.12% # Bytes accessed per row activation
system.mem_ctrls.dram.bytesPerActivate::1024-1151          123     13.88%    100.00% # Bytes accessed per row activation
system.mem_ctrls.dram.bytesPerActivate::total          886                       # Bytes accessed per row activation
system.mem_ctrls.dram.bytesRead                361472                       # Total number of bytes read from DRAM
system.mem_ctrls.dram.bytesWritten                  0                       # Total number of bytes written to DRAM
system.mem_ctrls.dram.avgRdBW                5.158892                       # Average DRAM read bandwidth in MiBytes/s
system.mem_ctrls.dram.avgWrBW                       0                       # Average DRAM write bandwidth in MiBytes/s
system.mem_ctrls.dram.peakBW                 12800.00                       # Theoretical peak bandwidth in MiByte/s
system.mem_ctrls.dram.busUtil                    0.04                       # Data bus utilization in percentage
system.mem_ctrls.dram.busUtilRead                0.04                       # Data bus utilization in percentage for reads
system.mem_ctrls.dram.busUtilWrite               0.00                       # Data bus utilization in percentage for writes
system.mem_ctrls.dram.pageHitRate               84.31                       # Row buffer hit rate, read and write combined
system.mem_ctrls.dram.power_state.pwrStateResidencyTicks::UNDEFINED  70067762000                       # Cumulative time (in ticks) in various power states
system.mem_ctrls.dram.rank0.actEnergy         3541440                       # Energy for activate commands per rank (pJ)
system.mem_ctrls.dram.rank0.preEnergy         1882320                       # Energy for precharge commands per rank (pJ)
system.mem_ctrls.dram.rank0.readEnergy       20820240                       # Energy for read commands per rank (pJ)
system.mem_ctrls.dram.rank0.writeEnergy             0                       # Energy for write commands per rank (pJ)
system.mem_ctrls.dram.rank0.refreshEnergy 5530530720.000001                       # Energy for refresh commands per rank (pJ)
system.mem_ctrls.dram.rank0.actBackEnergy   1539104310                       # Energy for active background per rank (pJ)
system.mem_ctrls.dram.rank0.preBackEnergy  25609932960                       # Energy for precharge background per rank (pJ)
system.mem_ctrls.dram.rank0.actPowerDownEnergy            0                       # Energy for active power-down per rank (pJ)
system.mem_ctrls.dram.rank0.prePowerDownEnergy            0                       # Energy for precharge power-down per rank (pJ)
system.mem_ctrls.dram.rank0.selfRefreshEnergy            0                       # Energy for self refresh per rank (pJ)
system.mem_ctrls.dram.rank0.totalEnergy   32705811990                       # Total energy per rank (pJ)
system.mem_ctrls.dram.rank0.averagePower   466.774035                       # Core power per rank (mW)
system.mem_ctrls.dram.rank0.totalIdleTime            0                       # Total Idle time Per DRAM Rank
system.mem_ctrls.dram.rank0.pwrStateTime::IDLE  66565565000                       # Time in different power states
system.mem_ctrls.dram.rank0.pwrStateTime::REF   2339480000                       # Time in different power states
system.mem_ctrls.dram.rank0.pwrStateTime::SREF            0                       # Time in different power states
system.mem_ctrls.dram.rank0.pwrStateTime::PRE_PDN            0                       # Time in different power states
system.mem_ctrls.dram.rank0.pwrStateTime::ACT   1162717000                       # Time in different power states
system.mem_ctrls.dram.rank0.pwrStateTime::ACT_PDN            0                       # Time in different power states
system.mem_ctrls.dram.rank1.actEnergy         2784600                       # Energy for activate commands per rank (pJ)
system.mem_ctrls.dram.rank1.preEnergy         1480050                       # Energy for precharge commands per rank (pJ)
system.mem_ctrls.dram.rank1.readEnergy       19506480                       # Energy for read commands per rank (pJ)
system.mem_ctrls.dram.rank1.writeEnergy             0                       # Energy for write commands per rank (pJ)
system.mem_ctrls.dram.rank1.refreshEnergy 5530530720.000001                       # Energy for refresh commands per rank (pJ)
system.mem_ctrls.dram.rank1.actBackEnergy   1453545600                       # Energy for active background per rank (pJ)
system.mem_ctrls.dram.rank1.preBackEnergy  25681982400                       # Energy for precharge background per rank (pJ)
system.mem_ctrls.dram.rank1.actPowerDownEnergy            0                       # Energy for active power-down per rank (pJ)
system.mem_ctrls.dram.rank1.prePowerDownEnergy            0                       # Energy for precharge power-down per rank (pJ)
system.mem_ctrls.dram.rank1.selfRefreshEnergy            0                       # Energy for self refresh per rank (pJ)
system.mem_ctrls.dram.rank1.totalEnergy   32689829850                       # Total energy per rank (pJ)
system.mem_ctrls.dram.rank1.averagePower   466.545939                       # Core power per rank (mW)
system.mem_ctrls.dram.rank1.totalIdleTime            0                       # Total Idle time Per DRAM Rank
system.mem_ctrls.dram.rank1.pwrStateTime::IDLE  66753811250                       # Time in different power states
system.mem_ctrls.dram.rank1.pwrStateTime::REF   2339480000                       # Time in different power states
system.mem_ctrls.dram.rank1.pwrStateTime::SREF            0                       # Time in different power states
system.mem_ctrls.dram.rank1.pwrStateTime::PRE_PDN            0                       # Time in different power states
system.mem_ctrls.dram.rank1.pwrStateTime::ACT    974470750                       # Time in different power states
system.mem_ctrls.dram.rank1.pwrStateTime::ACT_PDN            0                       # Time in different power states
system.mem_ctrls.power_state.pwrStateResidencyTicks::UNDEFINED  70067762000                       # Cumulative time (in ticks) in various power states
system.membus.trans_dist::ReadResp               1967                       # Transaction distribution
system.membus.trans_dist::ReadExReq              3681                       # Transaction distribution
system.membus.trans_dist::ReadExResp             3681                       # Transaction distribution
system.membus.trans_dist::ReadSharedReq          1967                       # Transaction distribution
system.membus.pkt_count_system.l2.mem_side_port::system.mem_ctrls.port        11296                       # Packet count per connected requestor and responder (bytes)
system.membus.pkt_count::total                  11296                       # Packet count per connected requestor and responder (bytes)
system.membus.pkt_size_system.l2.mem_side_port::system.mem_ctrls.port       361472                       # Cumulative packet size per connected requestor and responder (bytes)
system.membus.pkt_size::total                  361472                       # Cumulative packet size per connected requestor and responder (bytes)
system.membus.snoops                                0                       # Total snoops (count)
system.membus.snoopTraffic                          0                       # Total snoop traffic (bytes)
system.membus.snoop_fanout::samples              5648                       # Request fanout histogram
system.membus.snoop_fanout::mean                    0                       # Request fanout histogram
system.membus.snoop_fanout::stdev                   0                       # Request fanout histogram
system.membus.snoop_fanout::underflows              0      0.00%      0.00% # Request fanout histogram
system.membus.snoop_fanout::0                    5648    100.00%    100.00% # Request fanout histogram
system.membus.snoop_fanout::1                       0      0.00%    100.00% # Request fanout histogram
system.membus.snoop_fanout::overflows               0      0.00%    100.00% # Request fanout histogram
system.membus.snoop_fanout::min_value               0                       # Request fanout histogram
system.membus.snoop_fanout::max_value               0                       # Request fanout histogram
system.membus.snoop_fanout::total                5648                       # Request fanout histogram
system.membus.power_state.pwrStateResidencyTicks::UNDEFINED  70067762000                       # Cumulative time (in ticks) in various power states
system.membus.reqLayer0.occupancy             6965500                       # Layer occupancy (ticks)
system.membus.reqLayer0.utilization               0.0                       # Layer utilization (%)
system.membus.respLayer1.occupancy           29897500                       # Layer occupancy (ticks)
system.membus.respLayer1.utilization              0.0                       # Layer utilization (%)
system.tol2bus.trans_dist::ReadResp             28791                       # Transaction distribution
system.tol2bus.trans_dist::WritebackDirty       158762                       # Transaction distribution
system.tol2bus.trans_dist::WritebackClean          911                       # Transaction distribution
system.tol2bus.trans_dist::CleanEvict            3408                       # Transaction distribution
system.tol2bus.trans_dist::ReadExReq           135825                       # Transaction distribution
system.tol2bus.trans_dist::ReadExResp          135825                       # Transaction distribution
system.tol2bus.trans_dist::ReadCleanReq          1422                       # Transaction distribution
system.tol2bus.trans_dist::ReadSharedReq        27369                       # Transaction distribution
system.tol2bus.pkt_count_system.cpu.icache.mem_side_port::system.l2.cpu_side_port         3755                       # Packet count per connected requestor and responder (bytes)
system.tol2bus.pkt_count_system.cpu.dcache.mem_side_port::system.l2.cpu_side_port       488558                       # Packet count per connected requestor and responder (bytes)
system.tol2bus.pkt_count::total                492313                       # Packet count per connected requestor and responder (bytes)
system.tol2bus.pkt_size_system.cpu.icache.mem_side_port::system.l2.cpu_side_port       149312                       # Cumulative packet size per connected requestor and responder (bytes)
system.tol2bus.pkt_size_system.cpu.dcache.mem_side_port::system.l2.cpu_side_port     20605184                       # Cumulative packet size per connected requestor and responder (bytes)
system.tol2bus.pkt_size::total               20754496                       # Cumulative packet size per connected requestor and responder (bytes)
system.tol2bus.snoops                               0                       # Total snoops (count)
system.tol2bus.snoopTraffic                         0                       # Total snoop traffic (bytes)
system.tol2bus.snoop_fanout::samples           164616                       # Request fanout histogram
system.tol2bus.snoop_fanout::mean            0.010254                       # Request fanout histogram
system.tol2bus.snoop_fanout::stdev           0.100743                       # Request fanout histogram
system.tol2bus.snoop_fanout::underflows             0      0.00%      0.00% # Request fanout histogram
system.tol2bus.snoop_fanout::0                 162928     98.97%     98.97% # Request fanout histogram
system.tol2bus.snoop_fanout::1                   1688      1.03%    100.00% # Request fanout histogram
system.tol2bus.snoop_fanout::2                      0      0.00%    100.00% # Request fanout histogram
system.tol2bus.snoop_fanout::overflows              0      0.00%    100.00% # Request fanout histogram
system.tol2bus.snoop_fanout::min_value              0                       # Request fanout histogram
system.tol2bus.snoop_fanout::max_value              1                       # Request fanout histogram
system.tol2bus.snoop_fanout::total             164616                       # Request fanout histogram
system.tol2bus.power_state.pwrStateResidencyTicks::UNDEFINED  70067762000                       # Cumulative time (in ticks) in various power states
system.tol2bus.reqLayer0.occupancy          323521500                       # Layer occupancy (ticks)
system.tol2bus.reqLayer0.utilization              0.5                       # Layer utilization (%)
system.tol2bus.respLayer0.occupancy           2133998                       # Layer occupancy (ticks)
system.tol2bus.respLayer0.utilization             0.0                       # Layer utilization (%)
system.tol2bus.respLayer1.occupancy         244793495                       # Layer occupancy (ticks)
system.tol2bus.respLayer1.utilization             0.3                       # Layer utilization (%)
system.voltage_domain.voltage                       1                       # Voltage in Volts

---------- End Simulation Statistics   ----------
