
---------- Begin Simulation Statistics ----------
final_tick                               513903109500                       # Number of ticks from beginning of simulation (restored from checkpoints and never reset)
host_inst_rate                                 203281                       # Simulator instruction rate (inst/s)
host_mem_usage                                 671744                       # Number of bytes of host memory used
host_op_rate                                   374483                       # Simulator op (including micro ops) rate (op/s)
host_seconds                                   491.93                       # Real time elapsed on the host
host_tick_rate                             1044669693                       # Simulator tick rate (ticks/s)
sim_freq                                 1000000000000                       # Frequency of simulated ticks
sim_insts                                   100000000                       # Number of instructions simulated
sim_ops                                     184218810                       # Number of ops (including micro ops) simulated
sim_seconds                                  0.513903                       # Number of seconds simulated
sim_ticks                                513903109500                       # Number of ticks simulated
system.cpu.committedInsts                   100000000                       # Number of instructions committed
system.cpu.committedOps                     184218810                       # Number of ops (including micro ops) committed
system.cpu.cpi                              10.278062                       # CPI: cycles per instruction
system.cpu.discardedOps                          4398                       # Number of ops (including micro ops) which were discarded before commit
system.cpu.idleCycles                       806120711                       # Total number of cycles that the object has spent stopped
system.cpu.ipc                               0.097295                       # IPC: instructions per cycle
system.cpu.numCycles                       1027806219                       # number of cpu cycles simulated
system.cpu.numFetchSuspends                         0                       # Number of times Execute suspended instruction fetching
system.cpu.numWorkItemsCompleted                    0                       # number of work items this cpu completed
system.cpu.numWorkItemsStarted                      0                       # number of work items this cpu started
system.cpu.op_class_0::No_OpClass                   0      0.00%      0.00% # Class of committed instruction
system.cpu.op_class_0::IntAlu                97640467     53.00%     53.00% # Class of committed instruction
system.cpu.op_class_0::IntMult                 114702      0.06%     53.06% # Class of committed instruction
system.cpu.op_class_0::IntDiv                       0      0.00%     53.06% # Class of committed instruction
system.cpu.op_class_0::FloatAdd                     0      0.00%     53.06% # Class of committed instruction
system.cpu.op_class_0::FloatCmp                     0      0.00%     53.06% # Class of committed instruction
system.cpu.op_class_0::FloatCvt                     0      0.00%     53.06% # Class of committed instruction
system.cpu.op_class_0::FloatMult                    0      0.00%     53.06% # Class of committed instruction
system.cpu.op_class_0::FloatMultAcc                 0      0.00%     53.06% # Class of committed instruction
system.cpu.op_class_0::FloatDiv                     0      0.00%     53.06% # Class of committed instruction
system.cpu.op_class_0::FloatMisc                    0      0.00%     53.06% # Class of committed instruction
system.cpu.op_class_0::FloatSqrt                    0      0.00%     53.06% # Class of committed instruction
system.cpu.op_class_0::SimdAdd                      8      0.00%     53.06% # Class of committed instruction
system.cpu.op_class_0::SimdAddAcc                   0      0.00%     53.06% # Class of committed instruction
system.cpu.op_class_0::SimdAlu                     10      0.00%     53.06% # Class of committed instruction
system.cpu.op_class_0::SimdCmp                      8      0.00%     53.06% # Class of committed instruction
system.cpu.op_class_0::SimdCvt                      0      0.00%     53.06% # Class of committed instruction
system.cpu.op_class_0::SimdMisc                     1      0.00%     53.06% # Class of committed instruction
system.cpu.op_class_0::SimdMult                     0      0.00%     53.06% # Class of committed instruction
system.cpu.op_class_0::SimdMultAcc                  0      0.00%     53.06% # Class of committed instruction
system.cpu.op_class_0::SimdShift                    0      0.00%     53.06% # Class of committed instruction
system.cpu.op_class_0::SimdShiftAcc                 0      0.00%     53.06% # Class of committed instruction
system.cpu.op_class_0::SimdDiv                      0      0.00%     53.06% # Class of committed instruction
system.cpu.op_class_0::SimdSqrt                     0      0.00%     53.06% # Class of committed instruction
system.cpu.op_class_0::SimdFloatAdd                 0      0.00%     53.06% # Class of committed instruction
system.cpu.op_class_0::SimdFloatAlu                 0      0.00%     53.06% # Class of committed instruction
system.cpu.op_class_0::SimdFloatCmp                 0      0.00%     53.06% # Class of committed instruction
system.cpu.op_class_0::SimdFloatCvt                 0      0.00%     53.06% # Class of committed instruction
system.cpu.op_class_0::SimdFloatDiv                 0      0.00%     53.06% # Class of committed instruction
system.cpu.op_class_0::SimdFloatMisc               24      0.00%     53.06% # Class of committed instruction
system.cpu.op_class_0::SimdFloatMult                0      0.00%     53.06% # Class of committed instruction
system.cpu.op_class_0::SimdFloatMultAcc             0      0.00%     53.06% # Class of committed instruction
system.cpu.op_class_0::SimdFloatSqrt                0      0.00%     53.06% # Class of committed instruction
system.cpu.op_class_0::SimdReduceAdd                0      0.00%     53.06% # Class of committed instruction
system.cpu.op_class_0::SimdReduceAlu                0      0.00%     53.06% # Class of committed instruction
system.cpu.op_class_0::SimdReduceCmp                0      0.00%     53.06% # Class of committed instruction
system.cpu.op_class_0::SimdFloatReduceAdd            0      0.00%     53.06% # Class of committed instruction
system.cpu.op_class_0::SimdFloatReduceCmp            0      0.00%     53.06% # Class of committed instruction
system.cpu.op_class_0::SimdAes                      0      0.00%     53.06% # Class of committed instruction
system.cpu.op_class_0::SimdAesMix                   0      0.00%     53.06% # Class of committed instruction
system.cpu.op_class_0::SimdSha1Hash                 0      0.00%     53.06% # Class of committed instruction
system.cpu.op_class_0::SimdSha1Hash2                0      0.00%     53.06% # Class of committed instruction
system.cpu.op_class_0::SimdSha256Hash               0      0.00%     53.06% # Class of committed instruction
system.cpu.op_class_0::SimdSha256Hash2              0      0.00%     53.06% # Class of committed instruction
system.cpu.op_class_0::SimdShaSigma2                0      0.00%     53.06% # Class of committed instruction
system.cpu.op_class_0::SimdShaSigma3                0      0.00%     53.06% # Class of committed instruction
system.cpu.op_class_0::SimdPredAlu                  0      0.00%     53.06% # Class of committed instruction
system.cpu.op_class_0::MemRead                2082677      1.13%     54.20% # Class of committed instruction
system.cpu.op_class_0::MemWrite              84380913     45.80%    100.00% # Class of committed instruction
system.cpu.op_class_0::FloatMemRead                 0      0.00%    100.00% # Class of committed instruction
system.cpu.op_class_0::FloatMemWrite                0      0.00%    100.00% # Class of committed instruction
system.cpu.op_class_0::IprAccess                    0      0.00%    100.00% # Class of committed instruction
system.cpu.op_class_0::InstPrefetch                 0      0.00%    100.00% # Class of committed instruction
system.cpu.op_class_0::total                184218810                       # Class of committed instruction
system.cpu.tickCycles                       221685508                       # Number of cycles that the object actually ticked
system.cpu.workload.numSyscalls                    19                       # Number of system calls
system.membus.snoop_filter.hit_multi_requests            0                       # Number of requests hitting in the snoop filter with multiple (>1) holders of the requested data.
system.membus.snoop_filter.hit_multi_snoops            0                       # Number of snoops hitting in the snoop filter with multiple (>1) holders of the requested data.
system.membus.snoop_filter.hit_single_requests      5230686                       # Number of requests hitting in the snoop filter with a single holder of the requested data.
system.membus.snoop_filter.hit_single_snoops            0                       # Number of snoops hitting in the snoop filter with a single holder of the requested data.
system.membus.snoop_filter.tot_requests      10494567                       # Total number of requests made to the snoop filter.
system.membus.snoop_filter.tot_snoops               0                       # Total number of snoops made to the snoop filter.
system.tol2bus.snoop_filter.hit_multi_requests           56                       # Number of requests hitting in the snoop filter with multiple (>1) holders of the requested data.
system.tol2bus.snoop_filter.hit_multi_snoops            0                       # Number of snoops hitting in the snoop filter with multiple (>1) holders of the requested data.
system.tol2bus.snoop_filter.hit_single_requests      5262550                       # Number of requests hitting in the snoop filter with a single holder of the requested data.
system.tol2bus.snoop_filter.hit_single_snoops          534                       # Number of snoops hitting in the snoop filter with a single holder of the requested data.
system.tol2bus.snoop_filter.tot_requests     10526563                       # Total number of requests made to the snoop filter.
system.tol2bus.snoop_filter.tot_snoops            534                       # Total number of snoops made to the snoop filter.
system.clk_domain.clock                          1000                       # Clock period in ticks
system.cpu.branchPred.lookups                10658225                       # Number of BP lookups
system.cpu.branchPred.condPredicted          10649996                       # Number of conditional branches predicted
system.cpu.branchPred.condIncorrect              1453                       # Number of conditional branches incorrect
system.cpu.branchPred.BTBLookups             10650207                       # Number of BTB lookups
system.cpu.branchPred.BTBHits                10648846                       # Number of BTB hits
system.cpu.branchPred.BTBHitPct             99.987221                       # BTB Hit Percentage
system.cpu.branchPred.RASUsed                    2712                       # Number of times the RAS was used to get a target.
system.cpu.branchPred.RASIncorrect                  1                       # Number of incorrect RAS predictions.
system.cpu.branchPred.indirectLookups             195                       # Number of indirect predictor lookups.
system.cpu.branchPred.indirectHits                 18                       # Number of indirect target hits.
system.cpu.branchPred.indirectMisses              177                       # Number of indirect misses.
system.cpu.branchPred.indirectMispredicted          105                       # Number of mispredicted indirect branches.
system.cpu.dcache.demand_hits::.cpu.data     75856959                       # number of demand (read+write) hits
system.cpu.dcache.demand_hits::total         75856959                       # number of demand (read+write) hits
system.cpu.dcache.overall_hits::.cpu.data     75856994                       # number of overall hits
system.cpu.dcache.overall_hits::total        75856994                       # number of overall hits
system.cpu.dcache.demand_misses::.cpu.data     10523800                       # number of demand (read+write) misses
system.cpu.dcache.demand_misses::total       10523800                       # number of demand (read+write) misses
system.cpu.dcache.overall_misses::.cpu.data     10523836                       # number of overall misses
system.cpu.dcache.overall_misses::total      10523836                       # number of overall misses
system.cpu.dcache.demand_miss_latency::.cpu.data 876909856499                       # number of demand (read+write) miss cycles
system.cpu.dcache.demand_miss_latency::total 876909856499                       # number of demand (read+write) miss cycles
system.cpu.dcache.overall_miss_latency::.cpu.data 876909856499                       # number of overall miss cycles
system.cpu.dcache.overall_miss_latency::total 876909856499                       # number of overall miss cycles
system.cpu.dcache.demand_accesses::.cpu.data     86380759                       # number of demand (read+write) accesses
system.cpu.dcache.demand_accesses::total     86380759                       # number of demand (read+write) accesses
system.cpu.dcache.overall_accesses::.cpu.data     86380830                       # number of overall (read+write) accesses
system.cpu.dcache.overall_accesses::total     86380830                       # number of overall (read+write) accesses
system.cpu.dcache.demand_miss_rate::.cpu.data     0.121830                       # miss rate for demand accesses
system.cpu.dcache.demand_miss_rate::total     0.121830                       # miss rate for demand accesses
system.cpu.dcache.overall_miss_rate::.cpu.data     0.121831                       # miss rate for overall accesses
system.cpu.dcache.overall_miss_rate::total     0.121831                       # miss rate for overall accesses
system.cpu.dcache.demand_avg_miss_latency::.cpu.data 83326.351365                       # average overall miss latency
system.cpu.dcache.demand_avg_miss_latency::total 83326.351365                       # average overall miss latency
system.cpu.dcache.overall_avg_miss_latency::.cpu.data 83326.066322                       # average overall miss latency
system.cpu.dcache.overall_avg_miss_latency::total 83326.066322                       # average overall miss latency
system.cpu.dcache.blocked_cycles::no_mshrs          323                       # number of cycles access was blocked
system.cpu.dcache.blocked_cycles::no_targets            0                       # number of cycles access was blocked
system.cpu.dcache.blocked::no_mshrs                 4                       # number of cycles access was blocked
system.cpu.dcache.blocked::no_targets               0                       # number of cycles access was blocked
system.cpu.dcache.avg_blocked_cycles::no_mshrs    80.750000                       # average number of cycles each access was blocked
system.cpu.dcache.avg_blocked_cycles::no_targets          nan                       # average number of cycles each access was blocked
system.cpu.dcache.writebacks::.writebacks      5262054                       # number of writebacks
system.cpu.dcache.writebacks::total           5262054                       # number of writebacks
system.cpu.dcache.demand_mshr_hits::.cpu.data      5260459                       # number of demand (read+write) MSHR hits
system.cpu.dcache.demand_mshr_hits::total      5260459                       # number of demand (read+write) MSHR hits
system.cpu.dcache.overall_mshr_hits::.cpu.data      5260459                       # number of overall MSHR hits
system.cpu.dcache.overall_mshr_hits::total      5260459                       # number of overall MSHR hits
system.cpu.dcache.demand_mshr_misses::.cpu.data      5263341                       # number of demand (read+write) MSHR misses
system.cpu.dcache.demand_mshr_misses::total      5263341                       # number of demand (read+write) MSHR misses
system.cpu.dcache.overall_mshr_misses::.cpu.data      5263372                       # number of overall MSHR misses
system.cpu.dcache.overall_mshr_misses::total      5263372                       # number of overall MSHR misses
system.cpu.dcache.demand_mshr_miss_latency::.cpu.data 432000962000                       # number of demand (read+write) MSHR miss cycles
system.cpu.dcache.demand_mshr_miss_latency::total 432000962000                       # number of demand (read+write) MSHR miss cycles
system.cpu.dcache.overall_mshr_miss_latency::.cpu.data 432003764000                       # number of overall MSHR miss cycles
system.cpu.dcache.overall_mshr_miss_latency::total 432003764000                       # number of overall MSHR miss cycles
system.cpu.dcache.demand_mshr_miss_rate::.cpu.data     0.060932                       # mshr miss rate for demand accesses
system.cpu.dcache.demand_mshr_miss_rate::total     0.060932                       # mshr miss rate for demand accesses
system.cpu.dcache.overall_mshr_miss_rate::.cpu.data     0.060932                       # mshr miss rate for overall accesses
system.cpu.dcache.overall_mshr_miss_rate::total     0.060932                       # mshr miss rate for overall accesses
system.cpu.dcache.demand_avg_mshr_miss_latency::.cpu.data 82077.327310                       # average overall mshr miss latency
system.cpu.dcache.demand_avg_mshr_miss_latency::total 82077.327310                       # average overall mshr miss latency
system.cpu.dcache.overall_avg_mshr_miss_latency::.cpu.data 82077.376252                       # average overall mshr miss latency
system.cpu.dcache.overall_avg_mshr_miss_latency::total 82077.376252                       # average overall mshr miss latency
system.cpu.dcache.replacements                5262347                       # number of replacements
system.cpu.dcache.ReadReq_hits::.cpu.data      2043816                       # number of ReadReq hits
system.cpu.dcache.ReadReq_hits::total         2043816                       # number of ReadReq hits
system.cpu.dcache.ReadReq_misses::.cpu.data          325                       # number of ReadReq misses
system.cpu.dcache.ReadReq_misses::total           325                       # number of ReadReq misses
system.cpu.dcache.ReadReq_miss_latency::.cpu.data     24914500                       # number of ReadReq miss cycles
system.cpu.dcache.ReadReq_miss_latency::total     24914500                       # number of ReadReq miss cycles
system.cpu.dcache.ReadReq_accesses::.cpu.data      2044141                       # number of ReadReq accesses(hits+misses)
system.cpu.dcache.ReadReq_accesses::total      2044141                       # number of ReadReq accesses(hits+misses)
system.cpu.dcache.ReadReq_miss_rate::.cpu.data     0.000159                       # miss rate for ReadReq accesses
system.cpu.dcache.ReadReq_miss_rate::total     0.000159                       # miss rate for ReadReq accesses
system.cpu.dcache.ReadReq_avg_miss_latency::.cpu.data        76660                       # average ReadReq miss latency
system.cpu.dcache.ReadReq_avg_miss_latency::total        76660                       # average ReadReq miss latency
system.cpu.dcache.ReadReq_mshr_hits::.cpu.data           21                       # number of ReadReq MSHR hits
system.cpu.dcache.ReadReq_mshr_hits::total           21                       # number of ReadReq MSHR hits
system.cpu.dcache.ReadReq_mshr_misses::.cpu.data          304                       # number of ReadReq MSHR misses
system.cpu.dcache.ReadReq_mshr_misses::total          304                       # number of ReadReq MSHR misses
system.cpu.dcache.ReadReq_mshr_miss_latency::.cpu.data     22732500                       # number of ReadReq MSHR miss cycles
system.cpu.dcache.ReadReq_mshr_miss_latency::total     22732500                       # number of ReadReq MSHR miss cycles
system.cpu.dcache.ReadReq_mshr_miss_rate::.cpu.data     0.000149                       # mshr miss rate for ReadReq accesses
system.cpu.dcache.ReadReq_mshr_miss_rate::total     0.000149                       # mshr miss rate for ReadReq accesses
system.cpu.dcache.ReadReq_avg_mshr_miss_latency::.cpu.data 74777.960526                       # average ReadReq mshr miss latency
system.cpu.dcache.ReadReq_avg_mshr_miss_latency::total 74777.960526                       # average ReadReq mshr miss latency
system.cpu.dcache.WriteReq_hits::.cpu.data     73813143                       # number of WriteReq hits
system.cpu.dcache.WriteReq_hits::total       73813143                       # number of WriteReq hits
system.cpu.dcache.WriteReq_misses::.cpu.data     10523475                       # number of WriteReq misses
system.cpu.dcache.WriteReq_misses::total     10523475                       # number of WriteReq misses
system.cpu.dcache.WriteReq_miss_latency::.cpu.data 876884941999                       # number of WriteReq miss cycles
system.cpu.dcache.WriteReq_miss_latency::total 876884941999                       # number of WriteReq miss cycles
system.cpu.dcache.WriteReq_accesses::.cpu.data     84336618                       # number of WriteReq accesses(hits+misses)
system.cpu.dcache.WriteReq_accesses::total     84336618                       # number of WriteReq accesses(hits+misses)
system.cpu.dcache.WriteReq_miss_rate::.cpu.data     0.124779                       # miss rate for WriteReq accesses
system.cpu.dcache.WriteReq_miss_rate::total     0.124779                       # miss rate for WriteReq accesses
system.cpu.dcache.WriteReq_avg_miss_latency::.cpu.data 83326.557245                       # average WriteReq miss latency
system.cpu.dcache.WriteReq_avg_miss_latency::total 83326.557245                       # average WriteReq miss latency
system.cpu.dcache.WriteReq_mshr_hits::.cpu.data      5260438                       # number of WriteReq MSHR hits
system.cpu.dcache.WriteReq_mshr_hits::total      5260438                       # number of WriteReq MSHR hits
system.cpu.dcache.WriteReq_mshr_misses::.cpu.data      5263037                       # number of WriteReq MSHR misses
system.cpu.dcache.WriteReq_mshr_misses::total      5263037                       # number of WriteReq MSHR misses
system.cpu.dcache.WriteReq_mshr_miss_latency::.cpu.data 431978229500                       # number of WriteReq MSHR miss cycles
system.cpu.dcache.WriteReq_mshr_miss_latency::total 431978229500                       # number of WriteReq MSHR miss cycles
system.cpu.dcache.WriteReq_mshr_miss_rate::.cpu.data     0.062405                       # mshr miss rate for WriteReq accesses
system.cpu.dcache.WriteReq_mshr_miss_rate::total     0.062405                       # mshr miss rate for WriteReq accesses
system.cpu.dcache.WriteReq_avg_mshr_miss_latency::.cpu.data 82077.748931                       # average WriteReq mshr miss latency
system.cpu.dcache.WriteReq_avg_mshr_miss_latency::total 82077.748931                       # average WriteReq mshr miss latency
system.cpu.dcache.SoftPFReq_hits::.cpu.data           35                       # number of SoftPFReq hits
system.cpu.dcache.SoftPFReq_hits::total            35                       # number of SoftPFReq hits
system.cpu.dcache.SoftPFReq_misses::.cpu.data           36                       # number of SoftPFReq misses
system.cpu.dcache.SoftPFReq_misses::total           36                       # number of SoftPFReq misses
system.cpu.dcache.SoftPFReq_accesses::.cpu.data           71                       # number of SoftPFReq accesses(hits+misses)
system.cpu.dcache.SoftPFReq_accesses::total           71                       # number of SoftPFReq accesses(hits+misses)
system.cpu.dcache.SoftPFReq_miss_rate::.cpu.data     0.507042                       # miss rate for SoftPFReq accesses
system.cpu.dcache.SoftPFReq_miss_rate::total     0.507042                       # miss rate for SoftPFReq accesses
system.cpu.dcache.SoftPFReq_mshr_misses::.cpu.data           31                       # number of SoftPFReq MSHR misses
system.cpu.dcache.SoftPFReq_mshr_misses::total           31                       # number of SoftPFReq MSHR misses
system.cpu.dcache.SoftPFReq_mshr_miss_latency::.cpu.data      2802000                       # number of SoftPFReq MSHR miss cycles
system.cpu.dcache.SoftPFReq_mshr_miss_latency::total      2802000                       # number of SoftPFReq MSHR miss cycles
system.cpu.dcache.SoftPFReq_mshr_miss_rate::.cpu.data     0.436620                       # mshr miss rate for SoftPFReq accesses
system.cpu.dcache.SoftPFReq_mshr_miss_rate::total     0.436620                       # mshr miss rate for SoftPFReq accesses
system.cpu.dcache.SoftPFReq_avg_mshr_miss_latency::.cpu.data 90387.096774                       # average SoftPFReq mshr miss latency
system.cpu.dcache.SoftPFReq_avg_mshr_miss_latency::total 90387.096774                       # average SoftPFReq mshr miss latency
system.cpu.dcache.LoadLockedReq_hits::.cpu.data           34                       # number of LoadLockedReq hits
system.cpu.dcache.LoadLockedReq_hits::total           34                       # number of LoadLockedReq hits
system.cpu.dcache.LoadLockedReq_accesses::.cpu.data           34                       # number of LoadLockedReq accesses(hits+misses)
system.cpu.dcache.LoadLockedReq_accesses::total           34                       # number of LoadLockedReq accesses(hits+misses)
system.cpu.dcache.StoreCondReq_hits::.cpu.data           34                       # number of StoreCondReq hits
system.cpu.dcache.StoreCondReq_hits::total           34                       # number of StoreCondReq hits
system.cpu.dcache.StoreCondReq_accesses::.cpu.data           34                       # number of StoreCondReq accesses(hits+misses)
system.cpu.dcache.StoreCondReq_accesses::total           34                       # number of StoreCondReq accesses(hits+misses)
system.cpu.dcache.power_state.pwrStateResidencyTicks::UNDEFINED 513903109500                       # Cumulative time (in ticks) in various power states
system.cpu.dcache.tags.tagsinuse          1023.574257                       # Cycle average of tags in use
system.cpu.dcache.tags.total_refs            81120433                       # Total number of references to valid blocks.
system.cpu.dcache.tags.sampled_refs           5263371                       # Sample count of references to valid blocks.
system.cpu.dcache.tags.avg_refs             15.412258                       # Average number of references to valid blocks.
system.cpu.dcache.tags.warmup_cycle            176500                       # Cycle when the warmup percentage was hit.
system.cpu.dcache.tags.occ_blocks::.cpu.data  1023.574257                       # Average occupied blocks per requestor
system.cpu.dcache.tags.occ_percent::.cpu.data     0.999584                       # Average percentage of cache occupancy
system.cpu.dcache.tags.occ_percent::total     0.999584                       # Average percentage of cache occupancy
system.cpu.dcache.tags.occ_task_id_blocks::1024         1024                       # Occupied blocks per task id
system.cpu.dcache.tags.age_task_id_blocks_1024::0          104                       # Occupied blocks per task id
system.cpu.dcache.tags.age_task_id_blocks_1024::1          920                       # Occupied blocks per task id
system.cpu.dcache.tags.occ_task_id_percent::1024            1                       # Percentage of cache occupancy per task id
system.cpu.dcache.tags.tag_accesses         178025167                       # Number of tag accesses
system.cpu.dcache.tags.data_accesses        178025167                       # Number of data accesses
system.cpu.dcache.tags.power_state.pwrStateResidencyTicks::UNDEFINED 513903109500                       # Cumulative time (in ticks) in various power states
system.cpu.dtb.instHits                             0                       # ITB inst hits
system.cpu.dtb.instMisses                           0                       # ITB inst misses
system.cpu.dtb.readHits                             0                       # DTB read hits
system.cpu.dtb.readMisses                           0                       # DTB read misses
system.cpu.dtb.writeHits                            0                       # DTB write hits
system.cpu.dtb.writeMisses                          0                       # DTB write misses
system.cpu.dtb.inserts                              0                       # Number of times an entry is inserted into the TLB
system.cpu.dtb.flushTlb                             0                       # Number of times complete TLB was flushed
system.cpu.dtb.flushTlbMva                          0                       # Number of times TLB was flushed by MVA
system.cpu.dtb.flushTlbMvaAsid                      0                       # Number of times TLB was flushed by MVA & ASID
system.cpu.dtb.flushTlbAsid                         0                       # Number of times TLB was flushed by ASID
system.cpu.dtb.flushedEntries                       0                       # Number of entries that have been flushed from TLB
system.cpu.dtb.alignFaults                          0                       # Number of TLB faults due to alignment restrictions
system.cpu.dtb.prefetchFaults                       0                       # Number of TLB faults due to prefetch
system.cpu.dtb.domainFaults                         0                       # Number of TLB faults due to domain restrictions
system.cpu.dtb.permsFaults                          0                       # Number of TLB faults due to permissions restrictions
system.cpu.dtb.readAccesses                         0                       # DTB read accesses
system.cpu.dtb.writeAccesses                        0                       # DTB write accesses
system.cpu.dtb.instAccesses                         0                       # ITB inst accesses
system.cpu.dtb.hits                                 0                       # Total TLB (inst and data) hits
system.cpu.dtb.misses                               0                       # Total TLB (inst and data) misses
system.cpu.dtb.accesses                             0                       # Total TLB (inst and data) accesses
system.cpu.dtb.stage2_mmu.stage2_tlb.instHits            0                       # ITB inst hits
system.cpu.dtb.stage2_mmu.stage2_tlb.instMisses            0                       # ITB inst misses
system.cpu.dtb.stage2_mmu.stage2_tlb.readHits            0                       # DTB read hits
system.cpu.dtb.stage2_mmu.stage2_tlb.readMisses            0                       # DTB read misses
system.cpu.dtb.stage2_mmu.stage2_tlb.writeHits            0                       # DTB write hits
system.cpu.dtb.stage2_mmu.stage2_tlb.writeMisses            0                       # DTB write misses
system.cpu.dtb.stage2_mmu.stage2_tlb.inserts            0                       # Number of times an entry is inserted into the TLB
system.cpu.dtb.stage2_mmu.stage2_tlb.flushTlb            0                       # Number of times complete TLB was flushed
system.cpu.dtb.stage2_mmu.stage2_tlb.flushTlbMva            0                       # Number of times TLB was flushed by MVA
system.cpu.dtb.stage2_mmu.stage2_tlb.flushTlbMvaAsid            0                       # Number of times TLB was flushed by MVA & ASID
system.cpu.dtb.stage2_mmu.stage2_tlb.flushTlbAsid            0                       # Number of times TLB was flushed by ASID
system.cpu.dtb.stage2_mmu.stage2_tlb.flushedEntries            0                       # Number of entries that have been flushed from TLB
system.cpu.dtb.stage2_mmu.stage2_tlb.alignFaults            0                       # Number of TLB faults due to alignment restrictions
system.cpu.dtb.stage2_mmu.stage2_tlb.prefetchFaults            0                       # Number of TLB faults due to prefetch
system.cpu.dtb.stage2_mmu.stage2_tlb.domainFaults            0                       # Number of TLB faults due to domain restrictions
system.cpu.dtb.stage2_mmu.stage2_tlb.permsFaults            0                       # Number of TLB faults due to permissions restrictions
system.cpu.dtb.stage2_mmu.stage2_tlb.readAccesses            0                       # DTB read accesses
system.cpu.dtb.stage2_mmu.stage2_tlb.writeAccesses            0                       # DTB write accesses
system.cpu.dtb.stage2_mmu.stage2_tlb.instAccesses            0                       # ITB inst accesses
system.cpu.dtb.stage2_mmu.stage2_tlb.hits            0                       # Total TLB (inst and data) hits
system.cpu.dtb.stage2_mmu.stage2_tlb.misses            0                       # Total TLB (inst and data) misses
system.cpu.dtb.stage2_mmu.stage2_tlb.accesses            0                       # Total TLB (inst and data) accesses
system.cpu.dtb.stage2_mmu.stage2_tlb.walker.walks            0                       # Table walker walks requested
system.cpu.dtb.stage2_mmu.stage2_tlb.walker.requestOrigin_Requested::Data            0                       # Table walker requests started/completed, data/inst
system.cpu.dtb.stage2_mmu.stage2_tlb.walker.requestOrigin_Requested::Inst            0                       # Table walker requests started/completed, data/inst
system.cpu.dtb.stage2_mmu.stage2_tlb.walker.requestOrigin_Requested::total            0                       # Table walker requests started/completed, data/inst
system.cpu.dtb.stage2_mmu.stage2_tlb.walker.requestOrigin_Completed::Data            0                       # Table walker requests started/completed, data/inst
system.cpu.dtb.stage2_mmu.stage2_tlb.walker.requestOrigin_Completed::Inst            0                       # Table walker requests started/completed, data/inst
system.cpu.dtb.stage2_mmu.stage2_tlb.walker.requestOrigin_Completed::total            0                       # Table walker requests started/completed, data/inst
system.cpu.dtb.stage2_mmu.stage2_tlb.walker.requestOrigin::total            0                       # Table walker requests started/completed, data/inst
system.cpu.dtb.stage2_mmu.stage2_tlb.walker.power_state.pwrStateResidencyTicks::UNDEFINED 513903109500                       # Cumulative time (in ticks) in various power states
system.cpu.dtb.walker.walks                         0                       # Table walker walks requested
system.cpu.dtb.walker.requestOrigin_Requested::Data            0                       # Table walker requests started/completed, data/inst
system.cpu.dtb.walker.requestOrigin_Requested::Inst            0                       # Table walker requests started/completed, data/inst
system.cpu.dtb.walker.requestOrigin_Requested::total            0                       # Table walker requests started/completed, data/inst
system.cpu.dtb.walker.requestOrigin_Completed::Data            0                       # Table walker requests started/completed, data/inst
system.cpu.dtb.walker.requestOrigin_Completed::Inst            0                       # Table walker requests started/completed, data/inst
system.cpu.dtb.walker.requestOrigin_Completed::total            0                       # Table walker requests started/completed, data/inst
system.cpu.dtb.walker.requestOrigin::total            0                       # Table walker requests started/completed, data/inst
system.cpu.dtb.walker.power_state.pwrStateResidencyTicks::UNDEFINED 513903109500                       # Cumulative time (in ticks) in various power states
system.cpu.fetch2.intInstructions            45070968                       # Number of integer instructions successfully decoded
system.cpu.fetch2.fpInstructions                    0                       # Number of floating point instructions successfully decoded
system.cpu.fetch2.vecInstructions                   0                       # Number of SIMD instructions successfully decoded
system.cpu.fetch2.loadInstructions            2086394                       # Number of memory load instructions successfully decoded
system.cpu.fetch2.storeInstructions            169113                       # Number of memory store instructions successfully decoded
system.cpu.fetch2.amoInstructions                   0                       # Number of memory atomic instructions successfully decoded
system.cpu.icache.demand_hits::.cpu.inst     32144774                       # number of demand (read+write) hits
system.cpu.icache.demand_hits::total         32144774                       # number of demand (read+write) hits
system.cpu.icache.overall_hits::.cpu.inst     32144774                       # number of overall hits
system.cpu.icache.overall_hits::total        32144774                       # number of overall hits
system.cpu.icache.demand_misses::.cpu.inst          641                       # number of demand (read+write) misses
system.cpu.icache.demand_misses::total            641                       # number of demand (read+write) misses
system.cpu.icache.overall_misses::.cpu.inst          641                       # number of overall misses
system.cpu.icache.overall_misses::total           641                       # number of overall misses
system.cpu.icache.demand_miss_latency::.cpu.inst     48625500                       # number of demand (read+write) miss cycles
system.cpu.icache.demand_miss_latency::total     48625500                       # number of demand (read+write) miss cycles
system.cpu.icache.overall_miss_latency::.cpu.inst     48625500                       # number of overall miss cycles
system.cpu.icache.overall_miss_latency::total     48625500                       # number of overall miss cycles
system.cpu.icache.demand_accesses::.cpu.inst     32145415                       # number of demand (read+write) accesses
system.cpu.icache.demand_accesses::total     32145415                       # number of demand (read+write) accesses
system.cpu.icache.overall_accesses::.cpu.inst     32145415                       # number of overall (read+write) accesses
system.cpu.icache.overall_accesses::total     32145415                       # number of overall (read+write) accesses
system.cpu.icache.demand_miss_rate::.cpu.inst     0.000020                       # miss rate for demand accesses
system.cpu.icache.demand_miss_rate::total     0.000020                       # miss rate for demand accesses
system.cpu.icache.overall_miss_rate::.cpu.inst     0.000020                       # miss rate for overall accesses
system.cpu.icache.overall_miss_rate::total     0.000020                       # miss rate for overall accesses
system.cpu.icache.demand_avg_miss_latency::.cpu.inst 75858.814353                       # average overall miss latency
system.cpu.icache.demand_avg_miss_latency::total 75858.814353                       # average overall miss latency
system.cpu.icache.overall_avg_miss_latency::.cpu.inst 75858.814353                       # average overall miss latency
system.cpu.icache.overall_avg_miss_latency::total 75858.814353                       # average overall miss latency
system.cpu.icache.blocked_cycles::no_mshrs            0                       # number of cycles access was blocked
system.cpu.icache.blocked_cycles::no_targets            0                       # number of cycles access was blocked
system.cpu.icache.blocked::no_mshrs                 0                       # number of cycles access was blocked
system.cpu.icache.blocked::no_targets               0                       # number of cycles access was blocked
system.cpu.icache.avg_blocked_cycles::no_mshrs          nan                       # average number of cycles each access was blocked
system.cpu.icache.avg_blocked_cycles::no_targets          nan                       # average number of cycles each access was blocked
system.cpu.icache.writebacks::.writebacks          203                       # number of writebacks
system.cpu.icache.writebacks::total               203                       # number of writebacks
system.cpu.icache.demand_mshr_misses::.cpu.inst          641                       # number of demand (read+write) MSHR misses
system.cpu.icache.demand_mshr_misses::total          641                       # number of demand (read+write) MSHR misses
system.cpu.icache.overall_mshr_misses::.cpu.inst          641                       # number of overall MSHR misses
system.cpu.icache.overall_mshr_misses::total          641                       # number of overall MSHR misses
system.cpu.icache.demand_mshr_miss_latency::.cpu.inst     47984500                       # number of demand (read+write) MSHR miss cycles
system.cpu.icache.demand_mshr_miss_latency::total     47984500                       # number of demand (read+write) MSHR miss cycles
system.cpu.icache.overall_mshr_miss_latency::.cpu.inst     47984500                       # number of overall MSHR miss cycles
system.cpu.icache.overall_mshr_miss_latency::total     47984500                       # number of overall MSHR miss cycles
system.cpu.icache.demand_mshr_miss_rate::.cpu.inst     0.000020                       # mshr miss rate for demand accesses
system.cpu.icache.demand_mshr_miss_rate::total     0.000020                       # mshr miss rate for demand accesses
system.cpu.icache.overall_mshr_miss_rate::.cpu.inst     0.000020                       # mshr miss rate for overall accesses
system.cpu.icache.overall_mshr_miss_rate::total     0.000020                       # mshr miss rate for overall accesses
system.cpu.icache.demand_avg_mshr_miss_latency::.cpu.inst 74858.814353                       # average overall mshr miss latency
system.cpu.icache.demand_avg_mshr_miss_latency::total 74858.814353                       # average overall mshr miss latency
system.cpu.icache.overall_avg_mshr_miss_latency::.cpu.inst 74858.814353                       # average overall mshr miss latency
system.cpu.icache.overall_avg_mshr_miss_latency::total 74858.814353                       # average overall mshr miss latency
system.cpu.icache.replacements                    203                       # number of replacements
system.cpu.icache.ReadReq_hits::.cpu.inst     32144774                       # number of ReadReq hits
system.cpu.icache.ReadReq_hits::total        32144774                       # number of ReadReq hits
system.cpu.icache.ReadReq_misses::.cpu.inst          641                       # number of ReadReq misses
system.cpu.icache.ReadReq_misses::total           641                       # number of ReadReq misses
system.cpu.icache.ReadReq_miss_latency::.cpu.inst     48625500                       # number of ReadReq miss cycles
system.cpu.icache.ReadReq_miss_latency::total     48625500                       # number of ReadReq miss cycles
system.cpu.icache.ReadReq_accesses::.cpu.inst     32145415                       # number of ReadReq accesses(hits+misses)
system.cpu.icache.ReadReq_accesses::total     32145415                       # number of ReadReq accesses(hits+misses)
system.cpu.icache.ReadReq_miss_rate::.cpu.inst     0.000020                       # miss rate for ReadReq accesses
system.cpu.icache.ReadReq_miss_rate::total     0.000020                       # miss rate for ReadReq accesses
system.cpu.icache.ReadReq_avg_miss_latency::.cpu.inst 75858.814353                       # average ReadReq miss latency
system.cpu.icache.ReadReq_avg_miss_latency::total 75858.814353                       # average ReadReq miss latency
system.cpu.icache.ReadReq_mshr_misses::.cpu.inst          641                       # number of ReadReq MSHR misses
system.cpu.icache.ReadReq_mshr_misses::total          641                       # number of ReadReq MSHR misses
system.cpu.icache.ReadReq_mshr_miss_latency::.cpu.inst     47984500                       # number of ReadReq MSHR miss cycles
system.cpu.icache.ReadReq_mshr_miss_latency::total     47984500                       # number of ReadReq MSHR miss cycles
system.cpu.icache.ReadReq_mshr_miss_rate::.cpu.inst     0.000020                       # mshr miss rate for ReadReq accesses
system.cpu.icache.ReadReq_mshr_miss_rate::total     0.000020                       # mshr miss rate for ReadReq accesses
system.cpu.icache.ReadReq_avg_mshr_miss_latency::.cpu.inst 74858.814353                       # average ReadReq mshr miss latency
system.cpu.icache.ReadReq_avg_mshr_miss_latency::total 74858.814353                       # average ReadReq mshr miss latency
system.cpu.icache.power_state.pwrStateResidencyTicks::UNDEFINED 513903109500                       # Cumulative time (in ticks) in various power states
system.cpu.icache.tags.tagsinuse           390.457231                       # Cycle average of tags in use
system.cpu.icache.tags.total_refs            32145415                       # Total number of references to valid blocks.
system.cpu.icache.tags.sampled_refs               641                       # Sample count of references to valid blocks.
system.cpu.icache.tags.avg_refs          50148.853354                       # Average number of references to valid blocks.
system.cpu.icache.tags.warmup_cycle             87500                       # Cycle when the warmup percentage was hit.
system.cpu.icache.tags.occ_blocks::.cpu.inst   390.457231                       # Average occupied blocks per requestor
system.cpu.icache.tags.occ_percent::.cpu.inst     0.762612                       # Average percentage of cache occupancy
system.cpu.icache.tags.occ_percent::total     0.762612                       # Average percentage of cache occupancy
system.cpu.icache.tags.occ_task_id_blocks::1024          438                       # Occupied blocks per task id
system.cpu.icache.tags.age_task_id_blocks_1024::4          438                       # Occupied blocks per task id
system.cpu.icache.tags.occ_task_id_percent::1024     0.855469                       # Percentage of cache occupancy per task id
system.cpu.icache.tags.tag_accesses          64291471                       # Number of tag accesses
system.cpu.icache.tags.data_accesses         64291471                       # Number of data accesses
system.cpu.icache.tags.power_state.pwrStateResidencyTicks::UNDEFINED 513903109500                       # Cumulative time (in ticks) in various power states
system.cpu.itb.instHits                             0                       # ITB inst hits
system.cpu.itb.instMisses                           0                       # ITB inst misses
system.cpu.itb.readHits                             0                       # DTB read hits
system.cpu.itb.readMisses                           0                       # DTB read misses
system.cpu.itb.writeHits                            0                       # DTB write hits
system.cpu.itb.writeMisses                          0                       # DTB write misses
system.cpu.itb.inserts                              0                       # Number of times an entry is inserted into the TLB
system.cpu.itb.flushTlb                             0                       # Number of times complete TLB was flushed
system.cpu.itb.flushTlbMva                          0                       # Number of times TLB was flushed by MVA
system.cpu.itb.flushTlbMvaAsid                      0                       # Number of times TLB was flushed by MVA & ASID
system.cpu.itb.flushTlbAsid                         0                       # Number of times TLB was flushed by ASID
system.cpu.itb.flushedEntries                       0                       # Number of entries that have been flushed from TLB
system.cpu.itb.alignFaults                          0                       # Number of TLB faults due to alignment restrictions
system.cpu.itb.prefetchFaults                       0                       # Number of TLB faults due to prefetch
system.cpu.itb.domainFaults                         0                       # Number of TLB faults due to domain restrictions
system.cpu.itb.permsFaults                          0                       # Number of TLB faults due to permissions restrictions
system.cpu.itb.readAccesses                         0                       # DTB read accesses
system.cpu.itb.writeAccesses                        0                       # DTB write accesses
system.cpu.itb.instAccesses                         0                       # ITB inst accesses
system.cpu.itb.hits                                 0                       # Total TLB (inst and data) hits
system.cpu.itb.misses                               0                       # Total TLB (inst and data) misses
system.cpu.itb.accesses                             0                       # Total TLB (inst and data) accesses
system.cpu.itb.stage2_mmu.stage2_tlb.instHits            0                       # ITB inst hits
system.cpu.itb.stage2_mmu.stage2_tlb.instMisses            0                       # ITB inst misses
system.cpu.itb.stage2_mmu.stage2_tlb.readHits            0                       # DTB read hits
system.cpu.itb.stage2_mmu.stage2_tlb.readMisses            0                       # DTB read misses
system.cpu.itb.stage2_mmu.stage2_tlb.writeHits            0                       # DTB write hits
system.cpu.itb.stage2_mmu.stage2_tlb.writeMisses            0                       # DTB write misses
system.cpu.itb.stage2_mmu.stage2_tlb.inserts            0                       # Number of times an entry is inserted into the TLB
system.cpu.itb.stage2_mmu.stage2_tlb.flushTlb            0                       # Number of times complete TLB was flushed
system.cpu.itb.stage2_mmu.stage2_tlb.flushTlbMva            0                       # Number of times TLB was flushed by MVA
system.cpu.itb.stage2_mmu.stage2_tlb.flushTlbMvaAsid            0                       # Number of times TLB was flushed by MVA & ASID
system.cpu.itb.stage2_mmu.stage2_tlb.flushTlbAsid            0                       # Number of times TLB was flushed by ASID
system.cpu.itb.stage2_mmu.stage2_tlb.flushedEntries            0                       # Number of entries that have been flushed from TLB
system.cpu.itb.stage2_mmu.stage2_tlb.alignFaults            0                       # Number of TLB faults due to alignment restrictions
system.cpu.itb.stage2_mmu.stage2_tlb.prefetchFaults            0                       # Number of TLB faults due to prefetch
system.cpu.itb.stage2_mmu.stage2_tlb.domainFaults            0                       # Number of TLB faults due to domain restrictions
system.cpu.itb.stage2_mmu.stage2_tlb.permsFaults            0                       # Number of TLB faults due to permissions restrictions
system.cpu.itb.stage2_mmu.stage2_tlb.readAccesses            0                       # DTB read accesses
system.cpu.itb.stage2_mmu.stage2_tlb.writeAccesses            0                       # DTB write accesses
system.cpu.itb.stage2_mmu.stage2_tlb.instAccesses            0                       # ITB inst accesses
system.cpu.itb.stage2_mmu.stage2_tlb.hits            0                       # Total TLB (inst and data) hits
system.cpu.itb.stage2_mmu.stage2_tlb.misses            0                       # Total TLB (inst and data) misses
system.cpu.itb.stage2_mmu.stage2_tlb.accesses            0                       # Total TLB (inst and data) accesses
system.cpu.itb.stage2_mmu.stage2_tlb.walker.walks            0                       # Table walker walks requested
system.cpu.itb.stage2_mmu.stage2_tlb.walker.requestOrigin_Requested::Data            0                       # Table walker requests started/completed, data/inst
system.cpu.itb.stage2_mmu.stage2_tlb.walker.requestOrigin_Requested::Inst            0                       # Table walker requests started/completed, data/inst
system.cpu.itb.stage2_mmu.stage2_tlb.walker.requestOrigin_Requested::total            0                       # Table walker requests started/completed, data/inst
system.cpu.itb.stage2_mmu.stage2_tlb.walker.requestOrigin_Completed::Data            0                       # Table walker requests started/completed, data/inst
system.cpu.itb.stage2_mmu.stage2_tlb.walker.requestOrigin_Completed::Inst            0                       # Table walker requests started/completed, data/inst
system.cpu.itb.stage2_mmu.stage2_tlb.walker.requestOrigin_Completed::total            0                       # Table walker requests started/completed, data/inst
system.cpu.itb.stage2_mmu.stage2_tlb.walker.requestOrigin::total            0                       # Table walker requests started/completed, data/inst
system.cpu.itb.stage2_mmu.stage2_tlb.walker.power_state.pwrStateResidencyTicks::UNDEFINED 513903109500                       # Cumulative time (in ticks) in various power states
system.cpu.itb.walker.walks                         0                       # Table walker walks requested
system.cpu.itb.walker.requestOrigin_Requested::Data            0                       # Table walker requests started/completed, data/inst
system.cpu.itb.walker.requestOrigin_Requested::Inst            0                       # Table walker requests started/completed, data/inst
system.cpu.itb.walker.requestOrigin_Requested::total            0                       # Table walker requests started/completed, data/inst
system.cpu.itb.walker.requestOrigin_Completed::Data            0                       # Table walker requests started/completed, data/inst
system.cpu.itb.walker.requestOrigin_Completed::Inst            0                       # Table walker requests started/completed, data/inst
system.cpu.itb.walker.requestOrigin_Completed::total            0                       # Table walker requests started/completed, data/inst
system.cpu.itb.walker.requestOrigin::total            0                       # Table walker requests started/completed, data/inst
system.cpu.itb.walker.power_state.pwrStateResidencyTicks::UNDEFINED 513903109500                       # Cumulative time (in ticks) in various power states
system.cpu.power_state.pwrStateResidencyTicks::ON 513903109500                       # Cumulative time (in ticks) in various power states
system.cpu.thread0.numInsts                 100000000                       # Number of Instructions committed
system.cpu.thread0.numOps                   184218810                       # Number of Ops committed
system.cpu.thread0.numMemRefs                       0                       # Number of Memory References
system.cpu_clk_domain.clock                       500                       # Clock period in ticks
system.cpu_voltage_domain.voltage                   1                       # Voltage in Volts
system.l2.demand_hits::.cpu.inst                   52                       # number of demand (read+write) hits
system.l2.demand_hits::.cpu.data                   62                       # number of demand (read+write) hits
system.l2.demand_hits::total                      114                       # number of demand (read+write) hits
system.l2.overall_hits::.cpu.inst                  52                       # number of overall hits
system.l2.overall_hits::.cpu.data                  62                       # number of overall hits
system.l2.overall_hits::total                     114                       # number of overall hits
system.l2.demand_misses::.cpu.inst                589                       # number of demand (read+write) misses
system.l2.demand_misses::.cpu.data            5263310                       # number of demand (read+write) misses
system.l2.demand_misses::total                5263899                       # number of demand (read+write) misses
system.l2.overall_misses::.cpu.inst               589                       # number of overall misses
system.l2.overall_misses::.cpu.data           5263310                       # number of overall misses
system.l2.overall_misses::total               5263899                       # number of overall misses
system.l2.demand_miss_latency::.cpu.inst     46453500                       # number of demand (read+write) miss cycles
system.l2.demand_miss_latency::.cpu.data 424108025000                       # number of demand (read+write) miss cycles
system.l2.demand_miss_latency::total     424154478500                       # number of demand (read+write) miss cycles
system.l2.overall_miss_latency::.cpu.inst     46453500                       # number of overall miss cycles
system.l2.overall_miss_latency::.cpu.data 424108025000                       # number of overall miss cycles
system.l2.overall_miss_latency::total    424154478500                       # number of overall miss cycles
system.l2.demand_accesses::.cpu.inst              641                       # number of demand (read+write) accesses
system.l2.demand_accesses::.cpu.data          5263372                       # number of demand (read+write) accesses
system.l2.demand_accesses::total              5264013                       # number of demand (read+write) accesses
system.l2.overall_accesses::.cpu.inst             641                       # number of overall (read+write) accesses
system.l2.overall_accesses::.cpu.data         5263372                       # number of overall (read+write) accesses
system.l2.overall_accesses::total             5264013                       # number of overall (read+write) accesses
system.l2.demand_miss_rate::.cpu.inst        0.918877                       # miss rate for demand accesses
system.l2.demand_miss_rate::.cpu.data        0.999988                       # miss rate for demand accesses
system.l2.demand_miss_rate::total            0.999978                       # miss rate for demand accesses
system.l2.overall_miss_rate::.cpu.inst       0.918877                       # miss rate for overall accesses
system.l2.overall_miss_rate::.cpu.data       0.999988                       # miss rate for overall accesses
system.l2.overall_miss_rate::total           0.999978                       # miss rate for overall accesses
system.l2.demand_avg_miss_latency::.cpu.inst 78868.421053                       # average overall miss latency
system.l2.demand_avg_miss_latency::.cpu.data 80578.196040                       # average overall miss latency
system.l2.demand_avg_miss_latency::total 80578.004726                       # average overall miss latency
system.l2.overall_avg_miss_latency::.cpu.inst 78868.421053                       # average overall miss latency
system.l2.overall_avg_miss_latency::.cpu.data 80578.196040                       # average overall miss latency
system.l2.overall_avg_miss_latency::total 80578.004726                       # average overall miss latency
system.l2.blocked_cycles::no_mshrs                  0                       # number of cycles access was blocked
system.l2.blocked_cycles::no_targets                0                       # number of cycles access was blocked
system.l2.blocked::no_mshrs                         0                       # number of cycles access was blocked
system.l2.blocked::no_targets                       0                       # number of cycles access was blocked
system.l2.avg_blocked_cycles::no_mshrs            nan                       # average number of cycles each access was blocked
system.l2.avg_blocked_cycles::no_targets          nan                       # average number of cycles each access was blocked
system.l2.writebacks::.writebacks             5230284                       # number of writebacks
system.l2.writebacks::total                   5230284                       # number of writebacks
system.l2.demand_mshr_hits::.cpu.data               6                       # number of demand (read+write) MSHR hits
system.l2.demand_mshr_hits::total                   6                       # number of demand (read+write) MSHR hits
system.l2.overall_mshr_hits::.cpu.data              6                       # number of overall MSHR hits
system.l2.overall_mshr_hits::total                  6                       # number of overall MSHR hits
system.l2.demand_mshr_misses::.cpu.inst           589                       # number of demand (read+write) MSHR misses
system.l2.demand_mshr_misses::.cpu.data       5263304                       # number of demand (read+write) MSHR misses
system.l2.demand_mshr_misses::total           5263893                       # number of demand (read+write) MSHR misses
system.l2.overall_mshr_misses::.cpu.inst          589                       # number of overall MSHR misses
system.l2.overall_mshr_misses::.cpu.data      5263304                       # number of overall MSHR misses
system.l2.overall_mshr_misses::total          5263893                       # number of overall MSHR misses
system.l2.demand_mshr_miss_latency::.cpu.inst     40563500                       # number of demand (read+write) MSHR miss cycles
system.l2.demand_mshr_miss_latency::.cpu.data 371474597500                       # number of demand (read+write) MSHR miss cycles
system.l2.demand_mshr_miss_latency::total 371515161000                       # number of demand (read+write) MSHR miss cycles
system.l2.overall_mshr_miss_latency::.cpu.inst     40563500                       # number of overall MSHR miss cycles
system.l2.overall_mshr_miss_latency::.cpu.data 371474597500                       # number of overall MSHR miss cycles
system.l2.overall_mshr_miss_latency::total 371515161000                       # number of overall MSHR miss cycles
system.l2.demand_mshr_miss_rate::.cpu.inst     0.918877                       # mshr miss rate for demand accesses
system.l2.demand_mshr_miss_rate::.cpu.data     0.999987                       # mshr miss rate for demand accesses
system.l2.demand_mshr_miss_rate::total       0.999977                       # mshr miss rate for demand accesses
system.l2.overall_mshr_miss_rate::.cpu.inst     0.918877                       # mshr miss rate for overall accesses
system.l2.overall_mshr_miss_rate::.cpu.data     0.999987                       # mshr miss rate for overall accesses
system.l2.overall_mshr_miss_rate::total      0.999977                       # mshr miss rate for overall accesses
system.l2.demand_avg_mshr_miss_latency::.cpu.inst 68868.421053                       # average overall mshr miss latency
system.l2.demand_avg_mshr_miss_latency::.cpu.data 70578.214274                       # average overall mshr miss latency
system.l2.demand_avg_mshr_miss_latency::total 70578.022958                       # average overall mshr miss latency
system.l2.overall_avg_mshr_miss_latency::.cpu.inst 68868.421053                       # average overall mshr miss latency
system.l2.overall_avg_mshr_miss_latency::.cpu.data 70578.214274                       # average overall mshr miss latency
system.l2.overall_avg_mshr_miss_latency::total 70578.022958                       # average overall mshr miss latency
system.l2.replacements                        5231209                       # number of replacements
system.l2.WritebackDirty_hits::.writebacks      5262054                       # number of WritebackDirty hits
system.l2.WritebackDirty_hits::total          5262054                       # number of WritebackDirty hits
system.l2.WritebackDirty_accesses::.writebacks      5262054                       # number of WritebackDirty accesses(hits+misses)
system.l2.WritebackDirty_accesses::total      5262054                       # number of WritebackDirty accesses(hits+misses)
system.l2.WritebackClean_hits::.writebacks          196                       # number of WritebackClean hits
system.l2.WritebackClean_hits::total              196                       # number of WritebackClean hits
system.l2.WritebackClean_accesses::.writebacks          196                       # number of WritebackClean accesses(hits+misses)
system.l2.WritebackClean_accesses::total          196                       # number of WritebackClean accesses(hits+misses)
system.l2.ReadExReq_hits::.cpu.data                13                       # number of ReadExReq hits
system.l2.ReadExReq_hits::total                    13                       # number of ReadExReq hits
system.l2.ReadExReq_misses::.cpu.data         5263024                       # number of ReadExReq misses
system.l2.ReadExReq_misses::total             5263024                       # number of ReadExReq misses
system.l2.ReadExReq_miss_latency::.cpu.data 424083534500                       # number of ReadExReq miss cycles
system.l2.ReadExReq_miss_latency::total  424083534500                       # number of ReadExReq miss cycles
system.l2.ReadExReq_accesses::.cpu.data       5263037                       # number of ReadExReq accesses(hits+misses)
system.l2.ReadExReq_accesses::total           5263037                       # number of ReadExReq accesses(hits+misses)
system.l2.ReadExReq_miss_rate::.cpu.data     0.999998                       # miss rate for ReadExReq accesses
system.l2.ReadExReq_miss_rate::total         0.999998                       # miss rate for ReadExReq accesses
system.l2.ReadExReq_avg_miss_latency::.cpu.data 80577.921457                       # average ReadExReq miss latency
system.l2.ReadExReq_avg_miss_latency::total 80577.921457                       # average ReadExReq miss latency
system.l2.ReadExReq_mshr_misses::.cpu.data      5263024                       # number of ReadExReq MSHR misses
system.l2.ReadExReq_mshr_misses::total        5263024                       # number of ReadExReq MSHR misses
system.l2.ReadExReq_mshr_miss_latency::.cpu.data 371453304500                       # number of ReadExReq MSHR miss cycles
system.l2.ReadExReq_mshr_miss_latency::total 371453304500                       # number of ReadExReq MSHR miss cycles
system.l2.ReadExReq_mshr_miss_rate::.cpu.data     0.999998                       # mshr miss rate for ReadExReq accesses
system.l2.ReadExReq_mshr_miss_rate::total     0.999998                       # mshr miss rate for ReadExReq accesses
system.l2.ReadExReq_avg_mshr_miss_latency::.cpu.data 70577.923357                       # average ReadExReq mshr miss latency
system.l2.ReadExReq_avg_mshr_miss_latency::total 70577.923357                       # average ReadExReq mshr miss latency
system.l2.ReadCleanReq_hits::.cpu.inst             52                       # number of ReadCleanReq hits
system.l2.ReadCleanReq_hits::total                 52                       # number of ReadCleanReq hits
system.l2.ReadCleanReq_misses::.cpu.inst          589                       # number of ReadCleanReq misses
system.l2.ReadCleanReq_misses::total              589                       # number of ReadCleanReq misses
system.l2.ReadCleanReq_miss_latency::.cpu.inst     46453500                       # number of ReadCleanReq miss cycles
system.l2.ReadCleanReq_miss_latency::total     46453500                       # number of ReadCleanReq miss cycles
system.l2.ReadCleanReq_accesses::.cpu.inst          641                       # number of ReadCleanReq accesses(hits+misses)
system.l2.ReadCleanReq_accesses::total            641                       # number of ReadCleanReq accesses(hits+misses)
system.l2.ReadCleanReq_miss_rate::.cpu.inst     0.918877                       # miss rate for ReadCleanReq accesses
system.l2.ReadCleanReq_miss_rate::total      0.918877                       # miss rate for ReadCleanReq accesses
system.l2.ReadCleanReq_avg_miss_latency::.cpu.inst 78868.421053                       # average ReadCleanReq miss latency
system.l2.ReadCleanReq_avg_miss_latency::total 78868.421053                       # average ReadCleanReq miss latency
system.l2.ReadCleanReq_mshr_misses::.cpu.inst          589                       # number of ReadCleanReq MSHR misses
system.l2.ReadCleanReq_mshr_misses::total          589                       # number of ReadCleanReq MSHR misses
system.l2.ReadCleanReq_mshr_miss_latency::.cpu.inst     40563500                       # number of ReadCleanReq MSHR miss cycles
system.l2.ReadCleanReq_mshr_miss_latency::total     40563500                       # number of ReadCleanReq MSHR miss cycles
system.l2.ReadCleanReq_mshr_miss_rate::.cpu.inst     0.918877                       # mshr miss rate for ReadCleanReq accesses
system.l2.ReadCleanReq_mshr_miss_rate::total     0.918877                       # mshr miss rate for ReadCleanReq accesses
system.l2.ReadCleanReq_avg_mshr_miss_latency::.cpu.inst 68868.421053                       # average ReadCleanReq mshr miss latency
system.l2.ReadCleanReq_avg_mshr_miss_latency::total 68868.421053                       # average ReadCleanReq mshr miss latency
system.l2.ReadSharedReq_hits::.cpu.data            49                       # number of ReadSharedReq hits
system.l2.ReadSharedReq_hits::total                49                       # number of ReadSharedReq hits
system.l2.ReadSharedReq_misses::.cpu.data          286                       # number of ReadSharedReq misses
system.l2.ReadSharedReq_misses::total             286                       # number of ReadSharedReq misses
system.l2.ReadSharedReq_miss_latency::.cpu.data     24490500                       # number of ReadSharedReq miss cycles
system.l2.ReadSharedReq_miss_latency::total     24490500                       # number of ReadSharedReq miss cycles
system.l2.ReadSharedReq_accesses::.cpu.data          335                       # number of ReadSharedReq accesses(hits+misses)
system.l2.ReadSharedReq_accesses::total           335                       # number of ReadSharedReq accesses(hits+misses)
system.l2.ReadSharedReq_miss_rate::.cpu.data     0.853731                       # miss rate for ReadSharedReq accesses
system.l2.ReadSharedReq_miss_rate::total     0.853731                       # miss rate for ReadSharedReq accesses
system.l2.ReadSharedReq_avg_miss_latency::.cpu.data 85631.118881                       # average ReadSharedReq miss latency
system.l2.ReadSharedReq_avg_miss_latency::total 85631.118881                       # average ReadSharedReq miss latency
system.l2.ReadSharedReq_mshr_hits::.cpu.data            6                       # number of ReadSharedReq MSHR hits
system.l2.ReadSharedReq_mshr_hits::total            6                       # number of ReadSharedReq MSHR hits
system.l2.ReadSharedReq_mshr_misses::.cpu.data          280                       # number of ReadSharedReq MSHR misses
system.l2.ReadSharedReq_mshr_misses::total          280                       # number of ReadSharedReq MSHR misses
system.l2.ReadSharedReq_mshr_miss_latency::.cpu.data     21293000                       # number of ReadSharedReq MSHR miss cycles
system.l2.ReadSharedReq_mshr_miss_latency::total     21293000                       # number of ReadSharedReq MSHR miss cycles
system.l2.ReadSharedReq_mshr_miss_rate::.cpu.data     0.835821                       # mshr miss rate for ReadSharedReq accesses
system.l2.ReadSharedReq_mshr_miss_rate::total     0.835821                       # mshr miss rate for ReadSharedReq accesses
system.l2.ReadSharedReq_avg_mshr_miss_latency::.cpu.data 76046.428571                       # average ReadSharedReq mshr miss latency
system.l2.ReadSharedReq_avg_mshr_miss_latency::total 76046.428571                       # average ReadSharedReq mshr miss latency
system.l2.power_state.pwrStateResidencyTicks::UNDEFINED 513903109500                       # Cumulative time (in ticks) in various power states
system.l2.tags.tagsinuse                 32509.467001                       # Cycle average of tags in use
system.l2.tags.total_refs                    10526500                       # Total number of references to valid blocks.
system.l2.tags.sampled_refs                   5263977                       # Sample count of references to valid blocks.
system.l2.tags.avg_refs                      1.999724                       # Average number of references to valid blocks.
system.l2.tags.warmup_cycle                     77000                       # Cycle when the warmup percentage was hit.
system.l2.tags.occ_blocks::.writebacks       0.313539                       # Average occupied blocks per requestor
system.l2.tags.occ_blocks::.cpu.inst         4.132775                       # Average occupied blocks per requestor
system.l2.tags.occ_blocks::.cpu.data     32505.020687                       # Average occupied blocks per requestor
system.l2.tags.occ_percent::.writebacks      0.000010                       # Average percentage of cache occupancy
system.l2.tags.occ_percent::.cpu.inst        0.000126                       # Average percentage of cache occupancy
system.l2.tags.occ_percent::.cpu.data        0.991975                       # Average percentage of cache occupancy
system.l2.tags.occ_percent::total            0.992110                       # Average percentage of cache occupancy
system.l2.tags.occ_task_id_blocks::1024         32768                       # Occupied blocks per task id
system.l2.tags.age_task_id_blocks_1024::0          104                       # Occupied blocks per task id
system.l2.tags.age_task_id_blocks_1024::1          926                       # Occupied blocks per task id
system.l2.tags.age_task_id_blocks_1024::2         9270                       # Occupied blocks per task id
system.l2.tags.age_task_id_blocks_1024::3        22468                       # Occupied blocks per task id
system.l2.tags.occ_task_id_percent::1024            1                       # Percentage of cache occupancy per task id
system.l2.tags.tag_accesses                  26316991                       # Number of tag accesses
system.l2.tags.data_accesses                 26316991                       # Number of data accesses
system.l2.tags.power_state.pwrStateResidencyTicks::UNDEFINED 513903109500                       # Cumulative time (in ticks) in various power states
system.mem_ctrls.avgPriority_.writebacks::samples   5230284.00                       # Average QoS priority value for accepted requests
system.mem_ctrls.avgPriority_.cpu.inst::samples       589.00                       # Average QoS priority value for accepted requests
system.mem_ctrls.avgPriority_.cpu.data::samples   5263303.00                       # Average QoS priority value for accepted requests
system.mem_ctrls.priorityMinLatency      0.000000018750                       # per QoS priority minimum request to response latency (s)
system.mem_ctrls.priorityMaxLatency      0.000398066500                       # per QoS priority maximum request to response latency (s)
system.mem_ctrls.numReadWriteTurnArounds       326862                       # Number of turnarounds from READ to WRITE
system.mem_ctrls.numWriteReadTurnArounds       326862                       # Number of turnarounds from WRITE to READ
system.mem_ctrls.numStayReadState            15554211                       # Number of times bus staying in READ state
system.mem_ctrls.numStayWriteState            4911515                       # Number of times bus staying in WRITE state
system.mem_ctrls.readReqs                     5263892                       # Number of read requests accepted
system.mem_ctrls.writeReqs                    5230284                       # Number of write requests accepted
system.mem_ctrls.readBursts                   5263892                       # Number of controller read bursts, including those serviced by the write queue
system.mem_ctrls.writeBursts                  5230284                       # Number of controller write bursts, including those merged in the write queue
system.mem_ctrls.servicedByWrQ                      0                       # Number of controller read bursts serviced by the write queue
system.mem_ctrls.mergedWrBursts                     0                       # Number of controller write bursts merged with an existing one
system.mem_ctrls.neitherReadNorWriteReqs            0                       # Number of requests that are neither read nor write
system.mem_ctrls.avgRdQLen                       1.01                       # Average read queue length when enqueuing
system.mem_ctrls.avgWrQLen                      25.80                       # Average write queue length when enqueuing
system.mem_ctrls.numRdRetry                         0                       # Number of times read queue was full causing retry
system.mem_ctrls.numWrRetry                         0                       # Number of times write queue was full causing retry
system.mem_ctrls.readPktSize::0                     0                       # Read request sizes (log2)
system.mem_ctrls.readPktSize::1                     0                       # Read request sizes (log2)
system.mem_ctrls.readPktSize::2                     0                       # Read request sizes (log2)
system.mem_ctrls.readPktSize::3                     0                       # Read request sizes (log2)
system.mem_ctrls.readPktSize::4                     0                       # Read request sizes (log2)
system.mem_ctrls.readPktSize::5                     0                       # Read request sizes (log2)
system.mem_ctrls.readPktSize::6               5263892                       # Read request sizes (log2)
system.mem_ctrls.writePktSize::0                    0                       # Write request sizes (log2)
system.mem_ctrls.writePktSize::1                    0                       # Write request sizes (log2)
system.mem_ctrls.writePktSize::2                    0                       # Write request sizes (log2)
system.mem_ctrls.writePktSize::3                    0                       # Write request sizes (log2)
system.mem_ctrls.writePktSize::4                    0                       # Write request sizes (log2)
system.mem_ctrls.writePktSize::5                    0                       # Write request sizes (log2)
system.mem_ctrls.writePktSize::6              5230284                       # Write request sizes (log2)
system.mem_ctrls.rdQLenPdf::0                 5262919                       # What read queue length does an incoming req see
system.mem_ctrls.rdQLenPdf::1                     944                       # What read queue length does an incoming req see
system.mem_ctrls.rdQLenPdf::2                      26                       # What read queue length does an incoming req see
system.mem_ctrls.rdQLenPdf::3                       2                       # What read queue length does an incoming req see
system.mem_ctrls.rdQLenPdf::4                       1                       # What read queue length does an incoming req see
system.mem_ctrls.rdQLenPdf::5                       0                       # What read queue length does an incoming req see
system.mem_ctrls.rdQLenPdf::6                       0                       # What read queue length does an incoming req see
system.mem_ctrls.rdQLenPdf::7                       0                       # What read queue length does an incoming req see
system.mem_ctrls.rdQLenPdf::8                       0                       # What read queue length does an incoming req see
system.mem_ctrls.rdQLenPdf::9                       0                       # What read queue length does an incoming req see
system.mem_ctrls.rdQLenPdf::10                      0                       # What read queue length does an incoming req see
system.mem_ctrls.rdQLenPdf::11                      0                       # What read queue length does an incoming req see
system.mem_ctrls.rdQLenPdf::12                      0                       # What read queue length does an incoming req see
system.mem_ctrls.rdQLenPdf::13                      0                       # What read queue length does an incoming req see
system.mem_ctrls.rdQLenPdf::14                      0                       # What read queue length does an incoming req see
[...]
system.mem_ctrls.dram.bw_write::.writebacks    651364372                       # Write bandwidth from this memory (bytes/s)
system.mem_ctrls.dram.bw_write::total       651364372                       # Write bandwidth from this memory (bytes/s)
system.mem_ctrls.dram.bw_total::.writebacks    651364372                       # Total bandwidth to/from this memory (bytes/s)
system.mem_ctrls.dram.bw_total::.cpu.inst        73352                       # Total bandwidth to/from this memory (bytes/s)
system.mem_ctrls.dram.bw_total::.cpu.data    655476462                       # Total bandwidth to/from this memory (bytes/s)
system.mem_ctrls.dram.bw_total::total      1306914186                       # Total bandwidth to/from this memory (bytes/s)
system.mem_ctrls.dram.readBursts              5263892                       # Number of DRAM read bursts
system.mem_ctrls.dram.writeBursts             5230254                       # Number of DRAM write bursts
system.mem_ctrls.dram.perBankRdBursts::0       328922                       # Per bank write bursts
system.mem_ctrls.dram.perBankRdBursts::1       329088                       # Per bank write bursts
system.mem_ctrls.dram.perBankRdBursts::2       329059                       # Per bank write bursts
system.mem_ctrls.dram.perBankRdBursts::3       329078                       # Per bank write bursts
system.mem_ctrls.dram.perBankRdBursts::4       328991                       # Per bank write bursts
system.mem_ctrls.dram.perBankRdBursts::5       329077                       # Per bank write bursts
system.mem_ctrls.dram.perBankRdBursts::6       329081                       # Per bank write bursts
system.mem_ctrls.dram.perBankRdBursts::7       329025                       # Per bank write bursts
system.mem_ctrls.dram.perBankRdBursts::8       328902                       # Per bank write bursts
system.mem_ctrls.dram.perBankRdBursts::9       328864                       # Per bank write bursts
system.mem_ctrls.dram.perBankRdBursts::10       328904                       # Per bank write bursts
system.mem_ctrls.dram.perBankRdBursts::11       328922                       # Per bank write bursts
system.mem_ctrls.dram.perBankRdBursts::12       329020                       # Per bank write bursts
system.mem_ctrls.dram.perBankRdBursts::13       329023                       # Per bank write bursts
system.mem_ctrls.dram.perBankRdBursts::14       328993                       # Per bank write bursts
system.mem_ctrls.dram.perBankRdBursts::15       328943                       # Per bank write bursts
system.mem_ctrls.dram.perBankWrBursts::0       326789                       # Per bank write bursts
system.mem_ctrls.dram.perBankWrBursts::1       326941                       # Per bank write bursts
system.mem_ctrls.dram.perBankWrBursts::2       326926                       # Per bank write bursts
system.mem_ctrls.dram.perBankWrBursts::3       327006                       # Per bank write bursts
system.mem_ctrls.dram.perBankWrBursts::4       326926                       # Per bank write bursts
system.mem_ctrls.dram.perBankWrBursts::5       326985                       # Per bank write bursts
system.mem_ctrls.dram.perBankWrBursts::6       326986                       # Per bank write bursts
system.mem_ctrls.dram.perBankWrBursts::7       326958                       # Per bank write bursts
system.mem_ctrls.dram.perBankWrBursts::8       326785                       # Per bank write bursts
system.mem_ctrls.dram.perBankWrBursts::9       326784                       # Per bank write bursts
system.mem_ctrls.dram.perBankWrBursts::10       326784                       # Per bank write bursts
system.mem_ctrls.dram.perBankWrBursts::11       326839                       # Per bank write bursts
system.mem_ctrls.dram.perBankWrBursts::12       326913                       # Per bank write bursts
system.mem_ctrls.dram.perBankWrBursts::13       326906                       # Per bank write bursts
system.mem_ctrls.dram.perBankWrBursts::14       326861                       # Per bank write bursts
system.mem_ctrls.dram.perBankWrBursts::15       326865                       # Per bank write bursts
system.mem_ctrls.dram.totQLat             58240681500                       # Total ticks spent queuing
system.mem_ctrls.dram.totBusLat           26319460000                       # Total ticks spent in databus transfers
system.mem_ctrls.dram.totMemAccLat       156938656500                       # Total ticks spent from burst creation until serviced by the DRAM
system.mem_ctrls.dram.avgQLat                11064.19                       # Average queueing delay per DRAM burst
system.mem_ctrls.dram.avgBusLat               5000.00                       # Average bus latency per DRAM burst
system.mem_ctrls.dram.avgMemAccLat           29814.19                       # Average memory access latency per DRAM burst
system.mem_ctrls.dram.readRowHits             4835128                       # Number of row buffer hits during reads
system.mem_ctrls.dram.writeRowHits            4859036                       # Number of row buffer hits during writes
system.mem_ctrls.dram.readRowHitRate            91.85                       # Row buffer hit rate for reads
system.mem_ctrls.dram.writeRowHitRate           92.90                       # Row buffer hit rate for writes
system.mem_ctrls.dram.bytesPerActivate::samples       799981                       # Bytes accessed per row activation
system.mem_ctrls.dram.bytesPerActivate::mean   839.550579                       # Bytes accessed per row activation
system.mem_ctrls.dram.bytesPerActivate::gmean   742.175485                       # Bytes accessed per row activation
system.mem_ctrls.dram.bytesPerActivate::stdev   292.224012                       # Bytes accessed per row activation
system.mem_ctrls.dram.bytesPerActivate::0-127        19498      2.44%      2.44% # Bytes accessed per row activation
system.mem_ctrls.dram.bytesPerActivate::128-255        28871      3.61%      6.05% # Bytes accessed per row activation
system.mem_ctrls.dram.bytesPerActivate::256-383        26633      3.33%      9.38% # Bytes accessed per row activation
system.mem_ctrls.dram.bytesPerActivate::384-511        54252      6.78%     16.16% # Bytes accessed per row activation
system.mem_ctrls.dram.bytesPerActivate::512-639        61253      7.66%     23.81% # Bytes accessed per row activation
system.mem_ctrls.dram.bytesPerActivate::640-767        36220      4.53%     28.34% # Bytes accessed per row activation
system.mem_ctrls.dram.bytesPerActivate::768-895        21448      2.68%     31.02% # Bytes accessed per row activation
system.mem_ctrls.dram.bytesPerActivate::896-1023        30801      3.85%     34.87% # Bytes accessed per row activation
system.mem_ctrls.dram.bytesPerActivate::1024-1151       521005     65.13%    100.00% # Bytes accessed per row activation
system.mem_ctrls.dram.bytesPerActivate::total       799981                       # Bytes accessed per row activation
system.mem_ctrls.dram.bytesRead             336889088                       # Total number of bytes read from DRAM
system.mem_ctrls.dram.bytesWritten          334736256                       # Total number of bytes written to DRAM
system.mem_ctrls.dram.avgRdBW              655.549814                       # Average DRAM read bandwidth in MiBytes/s
system.mem_ctrls.dram.avgWrBW              651.360636                       # Average DRAM write bandwidth in MiBytes/s
system.mem_ctrls.dram.peakBW                 12800.00                       # Theoretical peak bandwidth in MiByte/s
system.mem_ctrls.dram.busUtil                   10.21                       # Data bus utilization in percentage
system.mem_ctrls.dram.busUtilRead                5.12                       # Data bus utilization in percentage for reads
system.mem_ctrls.dram.busUtilWrite               5.09                       # Data bus utilization in percentage for writes
system.mem_ctrls.dram.pageHitRate               92.38                       # Row buffer hit rate, read and write combined
system.mem_ctrls.dram.power_state.pwrStateResidencyTicks::UNDEFINED 513903109500                       # Cumulative time (in ticks) in various power states
system.mem_ctrls.dram.rank0.actEnergy      2855335980                       # Energy for activate commands per rank (pJ)
system.mem_ctrls.dram.rank0.preEnergy      1517643270                       # Energy for precharge commands per rank (pJ)
system.mem_ctrls.dram.rank0.readEnergy    18794771940                       # Energy for read commands per rank (pJ)
system.mem_ctrls.dram.rank0.writeEnergy   13652998740                       # Energy for write commands per rank (pJ)
system.mem_ctrls.dram.rank0.refreshEnergy 40566854640.000008                       # Energy for refresh commands per rank (pJ)
system.mem_ctrls.dram.rank0.actBackEnergy 123010937340                       # Energy for active background per rank (pJ)
system.mem_ctrls.dram.rank0.preBackEnergy  93750636480                       # Energy for precharge background per rank (pJ)
system.mem_ctrls.dram.rank0.actPowerDownEnergy            0                       # Energy for active power-down per rank (pJ)
system.mem_ctrls.dram.rank0.prePowerDownEnergy            0                       # Energy for precharge power-down per rank (pJ)
system.mem_ctrls.dram.rank0.selfRefreshEnergy            0                       # Energy for self refresh per rank (pJ)
system.mem_ctrls.dram.rank0.totalEnergy  294149178390                       # Total energy per rank (pJ)
system.mem_ctrls.dram.rank0.averagePower   572.382562                       # Core power per rank (mW)
system.mem_ctrls.dram.rank0.totalIdleTime            0                       # Total Idle time Per DRAM Rank
system.mem_ctrls.dram.rank0.pwrStateTime::IDLE 239928348000                       # Time in different power states
system.mem_ctrls.dram.rank0.pwrStateTime::REF  17160260000                       # Time in different power states
system.mem_ctrls.dram.rank0.pwrStateTime::SREF            0                       # Time in different power states
system.mem_ctrls.dram.rank0.pwrStateTime::PRE_PDN            0                       # Time in different power states
system.mem_ctrls.dram.rank0.pwrStateTime::ACT 256814501500                       # Time in different power states
system.mem_ctrls.dram.rank0.pwrStateTime::ACT_PDN            0                       # Time in different power states
system.mem_ctrls.dram.rank1.actEnergy      2856535500                       # Energy for activate commands per rank (pJ)
system.mem_ctrls.dram.rank1.preEnergy      1518284625                       # Energy for precharge commands per rank (pJ)
system.mem_ctrls.dram.rank1.readEnergy    18789416940                       # Energy for read commands per rank (pJ)
system.mem_ctrls.dram.rank1.writeEnergy   13648927140                       # Energy for write commands per rank (pJ)
system.mem_ctrls.dram.rank1.refreshEnergy 40566854640.000008                       # Energy for refresh commands per rank (pJ)
system.mem_ctrls.dram.rank1.actBackEnergy 122871769560                       # Energy for active background per rank (pJ)
system.mem_ctrls.dram.rank1.preBackEnergy  93867830400                       # Energy for precharge background per rank (pJ)
system.mem_ctrls.dram.rank1.actPowerDownEnergy            0                       # Energy for active power-down per rank (pJ)
system.mem_ctrls.dram.rank1.prePowerDownEnergy            0                       # Energy for precharge power-down per rank (pJ)
system.mem_ctrls.dram.rank1.selfRefreshEnergy            0                       # Energy for self refresh per rank (pJ)
system.mem_ctrls.dram.rank1.totalEnergy  294119618805                       # Total energy per rank (pJ)
system.mem_ctrls.dram.rank1.averagePower   572.325042                       # Core power per rank (mW)
system.mem_ctrls.dram.rank1.totalIdleTime            0                       # Total Idle time Per DRAM Rank
system.mem_ctrls.dram.rank1.pwrStateTime::IDLE 240232686750                       # Time in different power states
system.mem_ctrls.dram.rank1.pwrStateTime::REF  17160260000                       # Time in different power states
system.mem_ctrls.dram.rank1.pwrStateTime::SREF            0                       # Time in different power states
system.mem_ctrls.dram.rank1.pwrStateTime::PRE_PDN            0                       # Time in different power states
system.mem_ctrls.dram.rank1.pwrStateTime::ACT 256510162750                       # Time in different power states
system.mem_ctrls.dram.rank1.pwrStateTime::ACT_PDN            0                       # Time in different power states
system.mem_ctrls.power_state.pwrStateResidencyTicks::UNDEFINED 513903109500                       # Cumulative time (in ticks) in various power states
system.membus.trans_dist::ReadResp                869                       # Transaction distribution
system.membus.trans_dist::WritebackDirty      5230284                       # Transaction distribution
system.membus.trans_dist::CleanEvict              391                       # Transaction distribution
system.membus.trans_dist::ReadExReq           5263023                       # Transaction distribution
system.membus.trans_dist::ReadExResp          5263023                       # Transaction distribution
system.membus.trans_dist::ReadSharedReq           869                       # Transaction distribution
system.membus.pkt_count_system.l2.mem_side_port::system.mem_ctrls.port     15758459                       # Packet count per connected requestor and responder (bytes)
system.membus.pkt_count::total               15758459                       # Packet count per connected requestor and responder (bytes)
system.membus.pkt_size_system.l2.mem_side_port::system.mem_ctrls.port    671627264                       # Cumulative packet size per connected requestor and responder (bytes)
system.membus.pkt_size::total               671627264                       # Cumulative packet size per connected requestor and responder (bytes)
system.membus.snoops                                0                       # Total snoops (count)
system.membus.snoopTraffic                          0                       # Total snoop traffic (bytes)
system.membus.snoop_fanout::samples           5263892                       # Request fanout histogram
system.membus.snoop_fanout::mean                    0                       # Request fanout histogram
system.membus.snoop_fanout::stdev                   0                       # Request fanout histogram
system.membus.snoop_fanout::underflows              0      0.00%      0.00% # Request fanout histogram
system.membus.snoop_fanout::0                 5263892    100.00%    100.00% # Request fanout histogram
system.membus.snoop_fanout::1                       0      0.00%    100.00% # Request fanout histogram
system.membus.snoop_fanout::overflows               0      0.00%    100.00% # Request fanout histogram
system.membus.snoop_fanout::min_value               0                       # Request fanout histogram
system.membus.snoop_fanout::max_value               0                       # Request fanout histogram
system.membus.snoop_fanout::total             5263892                       # Request fanout histogram
system.membus.power_state.pwrStateResidencyTicks::UNDEFINED 513903109500                       # Cumulative time (in ticks) in various power states
system.membus.reqLayer0.occupancy         31438290500                       # Layer occupancy (ticks)
system.membus.reqLayer0.utilization               6.1                       # Layer utilization (%)
system.membus.respLayer1.occupancy        27685656500                       # Layer occupancy (ticks)
system.membus.respLayer1.utilization              5.4                       # Layer utilization (%)
system.tol2bus.trans_dist::ReadResp               976                       # Transaction distribution
system.tol2bus.trans_dist::WritebackDirty     10492338                       # Transaction distribution
system.tol2bus.trans_dist::WritebackClean          203                       # Transaction distribution
system.tol2bus.trans_dist::CleanEvict            1218                       # Transaction distribution
system.tol2bus.trans_dist::ReadExReq          5263037                       # Transaction distribution
system.tol2bus.trans_dist::ReadExResp         5263036                       # Transaction distribution
system.tol2bus.trans_dist::ReadCleanReq           641                       # Transaction distribution
system.tol2bus.trans_dist::ReadSharedReq          335                       # Transaction distribution
system.tol2bus.pkt_count_system.cpu.icache.mem_side_port::system.l2.cpu_side_port         1485                       # Packet count per connected requestor and responder (bytes)
system.tol2bus.pkt_count_system.cpu.dcache.mem_side_port::system.l2.cpu_side_port     15789090                       # Packet count per connected requestor and responder (bytes)
system.tol2bus.pkt_count::total              15790575                       # Packet count per connected requestor and responder (bytes)
system.tol2bus.pkt_size_system.cpu.icache.mem_side_port::system.l2.cpu_side_port        54016                       # Cumulative packet size per connected requestor and responder (bytes)
system.tol2bus.pkt_size_system.cpu.dcache.mem_side_port::system.l2.cpu_side_port    673627200                       # Cumulative packet size per connected requestor and responder (bytes)
system.tol2bus.pkt_size::total              673681216                       # Cumulative packet size per connected requestor and responder (bytes)
system.tol2bus.snoops                         5231209                       # Total snoops (count)
system.tol2bus.snoopTraffic                 334738176                       # Total snoop traffic (bytes)
system.tol2bus.snoop_fanout::samples         10495222                       # Request fanout histogram
system.tol2bus.snoop_fanout::mean            0.000056                       # Request fanout histogram
system.tol2bus.snoop_fanout::stdev           0.007498                       # Request fanout histogram
system.tol2bus.snoop_fanout::underflows             0      0.00%      0.00% # Request fanout histogram
system.tol2bus.snoop_fanout::0               10494632     99.99%     99.99% # Request fanout histogram
system.tol2bus.snoop_fanout::1                    590      0.01%    100.00% # Request fanout histogram
system.tol2bus.snoop_fanout::2                      0      0.00%    100.00% # Request fanout histogram
system.tol2bus.snoop_fanout::overflows              0      0.00%    100.00% # Request fanout histogram
system.tol2bus.snoop_fanout::min_value              0                       # Request fanout histogram
system.tol2bus.snoop_fanout::max_value              1                       # Request fanout histogram
system.tol2bus.snoop_fanout::total           10495222                       # Request fanout histogram
system.tol2bus.power_state.pwrStateResidencyTicks::UNDEFINED 513903109500                       # Cumulative time (in ticks) in various power states
system.tol2bus.reqLayer0.occupancy        10525538500                       # Layer occupancy (ticks)
system.tol2bus.reqLayer0.utilization              2.0                       # Layer utilization (%)
system.tol2bus.respLayer0.occupancy            961500                       # Layer occupancy (ticks)
system.tol2bus.respLayer0.utilization             0.0                       # Layer utilization (%)
system.tol2bus.respLayer1.occupancy        7895059494                       # Layer occupancy (ticks)
system.tol2bus.respLayer1.utilization             1.5                       # Layer utilization (%)
system.voltage_domain.voltage                       1                       # Voltage in Volts

---------- End Simulation Statistics   ----------
