
---------- Begin Simulation Statistics ----------
final_tick                                82235658000                       # Number of ticks from beginning of simulation (restored from checkpoints and never reset)
host_inst_rate                                 385924                       # Simulator instruction rate (inst/s)
host_mem_usage                                 669564                       # Number of bytes of host memory used
host_op_rate                                   386682                       # Simulator op (including micro ops) rate (op/s)
host_seconds                                   259.12                       # Real time elapsed on the host
host_tick_rate                              317367285                       # Simulator tick rate (ticks/s)
sim_freq                                 1000000000000                       # Frequency of simulated ticks
sim_insts                                   100000001                       # Number of instructions simulated
sim_ops                                     100196356                       # Number of ops (including micro ops) simulated
sim_seconds                                  0.082236                       # Number of seconds simulated
sim_ticks                                 82235658000                       # Number of ticks simulated
system.cpu.committedInsts                   100000001                       # Number of instructions committed
system.cpu.committedOps                     100196356                       # Number of ops (including micro ops) committed
system.cpu.cpi                               1.644713                       # CPI: cycles per instruction
system.cpu.discardedOps                        189334                       # Number of ops (including micro ops) which were discarded before commit
system.cpu.idleCycles                        31942637                       # Total number of cycles that the object has spent stopped
system.cpu.ipc                               0.608009                       # IPC: instructions per cycle
system.cpu.numCycles                        164471316                       # number of cpu cycles simulated
system.cpu.numFetchSuspends                         0                       # Number of times Execute suspended instruction fetching
system.cpu.numWorkItemsCompleted                    0                       # number of work items this cpu completed
system.cpu.numWorkItemsStarted                      0                       # number of work items this cpu started
system.cpu.op_class_0::No_OpClass                   0      0.00%      0.00% # Class of committed instruction
system.cpu.op_class_0::IntAlu                46526863     46.44%     46.44% # Class of committed instruction
system.cpu.op_class_0::IntMult                  20723      0.02%     46.46% # Class of committed instruction
system.cpu.op_class_0::IntDiv                       0      0.00%     46.46% # Class of committed instruction
system.cpu.op_class_0::FloatAdd                     0      0.00%     46.46% # Class of committed instruction
system.cpu.op_class_0::FloatCmp                     0      0.00%     46.46% # Class of committed instruction
system.cpu.op_class_0::FloatCvt                     0      0.00%     46.46% # Class of committed instruction
system.cpu.op_class_0::FloatMult                    0      0.00%     46.46% # Class of committed instruction
system.cpu.op_class_0::FloatMultAcc                 0      0.00%     46.46% # Class of committed instruction
system.cpu.op_class_0::FloatDiv                     0      0.00%     46.46% # Class of committed instruction
system.cpu.op_class_0::FloatMisc                    0      0.00%     46.46% # Class of committed instruction
system.cpu.op_class_0::FloatSqrt                    0      0.00%     46.46% # Class of committed instruction
system.cpu.op_class_0::SimdAdd                      0      0.00%     46.46% # Class of committed instruction
system.cpu.op_class_0::SimdAddAcc                   0      0.00%     46.46% # Class of committed instruction
system.cpu.op_class_0::SimdAlu                      0      0.00%     46.46% # Class of committed instruction
system.cpu.op_class_0::SimdCmp                      0      0.00%     46.46% # Class of committed instruction
system.cpu.op_class_0::SimdCvt                      0      0.00%     46.46% # Class of committed instruction
system.cpu.op_class_0::SimdMisc                     0      0.00%     46.46% # Class of committed instruction
system.cpu.op_class_0::SimdMult                     0      0.00%     46.46% # Class of committed instruction
system.cpu.op_class_0::SimdMultAcc                  0      0.00%     46.46% # Class of committed instruction
system.cpu.op_class_0::SimdShift                    0      0.00%     46.46% # Class of committed instruction
system.cpu.op_class_0::SimdShiftAcc                 0      0.00%     46.46% # Class of committed instruction
system.cpu.op_class_0::SimdDiv                      0      0.00%     46.46% # Class of committed instruction
system.cpu.op_class_0::SimdSqrt                     0      0.00%     46.46% # Class of committed instruction
system.cpu.op_class_0::SimdFloatAdd                 0      0.00%     46.46% # Class of committed instruction
system.cpu.op_class_0::SimdFloatAlu                 0      0.00%     46.46% # Class of committed instruction
system.cpu.op_class_0::SimdFloatCmp                 0      0.00%     46.46% # Class of committed instruction
system.cpu.op_class_0::SimdFloatCvt                 0      0.00%     46.46% # Class of committed instruction
system.cpu.op_class_0::SimdFloatDiv                 0      0.00%     46.46% # Class of committed instruction
system.cpu.op_class_0::SimdFloatMisc               18      0.00%     46.46% # Class of committed instruction
system.cpu.op_class_0::SimdFloatMult                0      0.00%     46.46% # Class of committed instruction
system.cpu.op_class_0::SimdFloatMultAcc             0      0.00%     46.46% # Class of committed instruction
system.cpu.op_class_0::SimdFloatSqrt                0      0.00%     46.46% # Class of committed instruction
system.cpu.op_class_0::SimdReduceAdd                0      0.00%     46.46% # Class of committed instruction
system.cpu.op_class_0::SimdReduceAlu                0      0.00%     46.46% # Class of committed instruction
system.cpu.op_class_0::SimdReduceCmp                0      0.00%     46.46% # Class of committed instruction
system.cpu.op_class_0::SimdFloatReduceAdd            0      0.00%     46.46% # Class of committed instruction
system.cpu.op_class_0::SimdFloatReduceCmp            0      0.00%     46.46% # Class of committed instruction
system.cpu.op_class_0::SimdAes                      0      0.00%     46.46% # Class of committed instruction
system.cpu.op_class_0::SimdAesMix                   0      0.00%     46.46% # Class of committed instruction
system.cpu.op_class_0::SimdSha1Hash                 0      0.00%     46.46% # Class of committed instruction
system.cpu.op_class_0::SimdSha1Hash2                0      0.00%     46.46% # Class of committed instruction
system.cpu.op_class_0::SimdSha256Hash               0      0.00%     46.46% # Class of committed instruction
system.cpu.op_class_0::SimdSha256Hash2              0      0.00%     46.46% # Class of committed instruction
system.cpu.op_class_0::SimdShaSigma2                0      0.00%     46.46% # Class of committed instruction
system.cpu.op_class_0::SimdShaSigma3                0      0.00%     46.46% # Class of committed instruction
system.cpu.op_class_0::SimdPredAlu                  0      0.00%     46.46% # Class of committed instruction
system.cpu.op_class_0::MemRead               42690537     42.61%     89.06% # Class of committed instruction
system.cpu.op_class_0::MemWrite              10958215     10.94%    100.00% # Class of committed instruction
system.cpu.op_class_0::FloatMemRead                 0      0.00%    100.00% # Class of committed instruction
system.cpu.op_class_0::FloatMemWrite                0      0.00%    100.00% # Class of committed instruction
system.cpu.op_class_0::IprAccess                    0      0.00%    100.00% # Class of committed instruction
system.cpu.op_class_0::InstPrefetch                 0      0.00%    100.00% # Class of committed instruction
system.cpu.op_class_0::total                100196356                       # Class of committed instruction
system.cpu.tickCycles                       132528679                       # Number of cycles that the object actually ticked
system.cpu.workload.numSyscalls                    85                       # Number of system calls
system.membus.snoop_filter.hit_multi_requests            0                       # Number of requests hitting in the snoop filter with multiple (>1) holders of the requested data.
system.membus.snoop_filter.hit_multi_snoops            0                       # Number of snoops hitting in the snoop filter with multiple (>1) holders of the requested data.
system.membus.snoop_filter.hit_single_requests       168549                       # Number of requests hitting in the snoop filter with a single holder of the requested data.
system.membus.snoop_filter.hit_single_snoops            0                       # Number of snoops hitting in the snoop filter with a single holder of the requested data.
system.membus.snoop_filter.tot_requests        370329                       # Total number of requests made to the snoop filter.
system.membus.snoop_filter.tot_snoops               0                       # Total number of snoops made to the snoop filter.
system.tol2bus.snoop_filter.hit_multi_requests           63                       # Number of requests hitting in the snoop filter with multiple (>1) holders of the requested data.
system.tol2bus.snoop_filter.hit_multi_snoops            0                       # Number of snoops hitting in the snoop filter with multiple (>1) holders of the requested data.
system.tol2bus.snoop_filter.hit_single_requests       524861                       # Number of requests hitting in the snoop filter with a single holder of the requested data.
system.tol2bus.snoop_filter.hit_single_snoops          529                       # Number of snoops hitting in the snoop filter with a single holder of the requested data.
system.tol2bus.snoop_filter.tot_requests      1052338                       # Total number of requests made to the snoop filter.
system.tol2bus.snoop_filter.tot_snoops            529                       # Total number of snoops made to the snoop filter.
system.clk_domain.clock                          1000                       # Clock period in ticks
system.cpu.branchPred.lookups                 4485904                       # Number of BP lookups
system.cpu.branchPred.condPredicted           3735600                       # Number of conditional branches predicted
system.cpu.branchPred.condIncorrect             80999                       # Number of conditional branches incorrect
system.cpu.branchPred.BTBLookups              2103813                       # Number of BTB lookups
system.cpu.branchPred.BTBHits                 2101803                       # Number of BTB hits
system.cpu.branchPred.BTBHitPct             99.904459                       # BTB Hit Percentage
system.cpu.branchPred.RASUsed                   65376                       # Number of times the RAS was used to get a target.
system.cpu.branchPred.RASIncorrect                 14                       # Number of incorrect RAS predictions.
system.cpu.branchPred.indirectLookups             693                       # Number of indirect predictor lookups.
system.cpu.branchPred.indirectHits                288                       # Number of indirect target hits.
system.cpu.branchPred.indirectMisses              405                       # Number of indirect misses.
system.cpu.branchPred.indirectMispredicted          171                       # Number of mispredicted indirect branches.
system.cpu.dcache.demand_hits::.cpu.data     51480999                       # number of demand (read+write) hits
system.cpu.dcache.demand_hits::total         51480999                       # number of demand (read+write) hits
system.cpu.dcache.overall_hits::.cpu.data     51481509                       # number of overall hits
system.cpu.dcache.overall_hits::total        51481509                       # number of overall hits
system.cpu.dcache.demand_misses::.cpu.data       581326                       # number of demand (read+write) misses
system.cpu.dcache.demand_misses::total         581326                       # number of demand (read+write) misses
system.cpu.dcache.overall_misses::.cpu.data       589235                       # number of overall misses
system.cpu.dcache.overall_misses::total        589235                       # number of overall misses
system.cpu.dcache.demand_miss_latency::.cpu.data  22605896000                       # number of demand (read+write) miss cycles
system.cpu.dcache.demand_miss_latency::total  22605896000                       # number of demand (read+write) miss cycles
system.cpu.dcache.overall_miss_latency::.cpu.data  22605896000                       # number of overall miss cycles
system.cpu.dcache.overall_miss_latency::total  22605896000                       # number of overall miss cycles
system.cpu.dcache.demand_accesses::.cpu.data     52062325                       # number of demand (read+write) accesses
system.cpu.dcache.demand_accesses::total     52062325                       # number of demand (read+write) accesses
system.cpu.dcache.overall_accesses::.cpu.data     52070744                       # number of overall (read+write) accesses
system.cpu.dcache.overall_accesses::total     52070744                       # number of overall (read+write) accesses
system.cpu.dcache.demand_miss_rate::.cpu.data     0.011166                       # miss rate for demand accesses
system.cpu.dcache.demand_miss_rate::total     0.011166                       # miss rate for demand accesses
system.cpu.dcache.overall_miss_rate::.cpu.data     0.011316                       # miss rate for overall accesses
system.cpu.dcache.overall_miss_rate::total     0.011316                       # miss rate for overall accesses
system.cpu.dcache.demand_avg_miss_latency::.cpu.data 38886.779535                       # average overall miss latency
system.cpu.dcache.demand_avg_miss_latency::total 38886.779535                       # average overall miss latency
system.cpu.dcache.overall_avg_miss_latency::.cpu.data 38364.822185                       # average overall miss latency
system.cpu.dcache.overall_avg_miss_latency::total 38364.822185                       # average overall miss latency
system.cpu.dcache.blocked_cycles::no_mshrs       216578                       # number of cycles access was blocked
system.cpu.dcache.blocked_cycles::no_targets            0                       # number of cycles access was blocked
system.cpu.dcache.blocked::no_mshrs              3245                       # number of cycles access was blocked
system.cpu.dcache.blocked::no_targets               0                       # number of cycles access was blocked
system.cpu.dcache.avg_blocked_cycles::no_mshrs    66.742065                       # average number of cycles each access was blocked
system.cpu.dcache.avg_blocked_cycles::no_targets          nan                       # average number of cycles each access was blocked
system.cpu.dcache.writebacks::.writebacks       450554                       # number of writebacks
system.cpu.dcache.writebacks::total            450554                       # number of writebacks
system.cpu.dcache.demand_mshr_hits::.cpu.data        62452                       # number of demand (read+write) MSHR hits
system.cpu.dcache.demand_mshr_hits::total        62452                       # number of demand (read+write) MSHR hits
system.cpu.dcache.overall_mshr_hits::.cpu.data        62452                       # number of overall MSHR hits
system.cpu.dcache.overall_mshr_hits::total        62452                       # number of overall MSHR hits
system.cpu.dcache.demand_mshr_misses::.cpu.data       518874                       # number of demand (read+write) MSHR misses
system.cpu.dcache.demand_mshr_misses::total       518874                       # number of demand (read+write) MSHR misses
system.cpu.dcache.overall_mshr_misses::.cpu.data       526779                       # number of overall MSHR misses
system.cpu.dcache.overall_mshr_misses::total       526779                       # number of overall MSHR misses
system.cpu.dcache.demand_mshr_miss_latency::.cpu.data  20491825500                       # number of demand (read+write) MSHR miss cycles
system.cpu.dcache.demand_mshr_miss_latency::total  20491825500                       # number of demand (read+write) MSHR miss cycles
system.cpu.dcache.overall_mshr_miss_latency::.cpu.data  21190164499                       # number of overall MSHR miss cycles
system.cpu.dcache.overall_mshr_miss_latency::total  21190164499                       # number of overall MSHR miss cycles
system.cpu.dcache.demand_mshr_miss_rate::.cpu.data     0.009966                       # mshr miss rate for demand accesses
system.cpu.dcache.demand_mshr_miss_rate::total     0.009966                       # mshr miss rate for demand accesses
system.cpu.dcache.overall_mshr_miss_rate::.cpu.data     0.010117                       # mshr miss rate for overall accesses
system.cpu.dcache.overall_mshr_miss_rate::total     0.010117                       # mshr miss rate for overall accesses
system.cpu.dcache.demand_avg_mshr_miss_latency::.cpu.data 39492.873993                       # average overall mshr miss latency
system.cpu.dcache.demand_avg_mshr_miss_latency::total 39492.873993                       # average overall mshr miss latency
system.cpu.dcache.overall_avg_mshr_miss_latency::.cpu.data 40225.909725                       # average overall mshr miss latency
system.cpu.dcache.overall_avg_mshr_miss_latency::total 40225.909725                       # average overall mshr miss latency
system.cpu.dcache.replacements                 524731                       # number of replacements
system.cpu.dcache.ReadReq_hits::.cpu.data     40837302                       # number of ReadReq hits
system.cpu.dcache.ReadReq_hits::total        40837302                       # number of ReadReq hits
system.cpu.dcache.ReadReq_misses::.cpu.data       275941                       # number of ReadReq misses
system.cpu.dcache.ReadReq_misses::total        275941                       # number of ReadReq misses
system.cpu.dcache.ReadReq_miss_latency::.cpu.data   7533260000                       # number of ReadReq miss cycles
system.cpu.dcache.ReadReq_miss_latency::total   7533260000                       # number of ReadReq miss cycles
system.cpu.dcache.ReadReq_accesses::.cpu.data     41113243                       # number of ReadReq accesses(hits+misses)
system.cpu.dcache.ReadReq_accesses::total     41113243                       # number of ReadReq accesses(hits+misses)
system.cpu.dcache.ReadReq_miss_rate::.cpu.data     0.006712                       # miss rate for ReadReq accesses
system.cpu.dcache.ReadReq_miss_rate::total     0.006712                       # miss rate for ReadReq accesses
system.cpu.dcache.ReadReq_avg_miss_latency::.cpu.data 27300.256214                       # average ReadReq miss latency
system.cpu.dcache.ReadReq_avg_miss_latency::total 27300.256214                       # average ReadReq miss latency
system.cpu.dcache.ReadReq_mshr_hits::.cpu.data          565                       # number of ReadReq MSHR hits
system.cpu.dcache.ReadReq_mshr_hits::total          565                       # number of ReadReq MSHR hits
system.cpu.dcache.ReadReq_mshr_misses::.cpu.data       275376                       # number of ReadReq MSHR misses
system.cpu.dcache.ReadReq_mshr_misses::total       275376                       # number of ReadReq MSHR misses
system.cpu.dcache.ReadReq_mshr_miss_latency::.cpu.data   7233989000                       # number of ReadReq MSHR miss cycles
system.cpu.dcache.ReadReq_mshr_miss_latency::total   7233989000                       # number of ReadReq MSHR miss cycles
system.cpu.dcache.ReadReq_mshr_miss_rate::.cpu.data     0.006698                       # mshr miss rate for ReadReq accesses
system.cpu.dcache.ReadReq_mshr_miss_rate::total     0.006698                       # mshr miss rate for ReadReq accesses
system.cpu.dcache.ReadReq_avg_mshr_miss_latency::.cpu.data 26269.496979                       # average ReadReq mshr miss latency
system.cpu.dcache.ReadReq_avg_mshr_miss_latency::total 26269.496979                       # average ReadReq mshr miss latency
system.cpu.dcache.WriteReq_hits::.cpu.data     10643697                       # number of WriteReq hits
system.cpu.dcache.WriteReq_hits::total       10643697                       # number of WriteReq hits
system.cpu.dcache.WriteReq_misses::.cpu.data       305385                       # number of WriteReq misses
system.cpu.dcache.WriteReq_misses::total       305385                       # number of WriteReq misses
system.cpu.dcache.WriteReq_miss_latency::.cpu.data  15072636000                       # number of WriteReq miss cycles
system.cpu.dcache.WriteReq_miss_latency::total  15072636000                       # number of WriteReq miss cycles
system.cpu.dcache.WriteReq_accesses::.cpu.data     10949082                       # number of WriteReq accesses(hits+misses)
system.cpu.dcache.WriteReq_accesses::total     10949082                       # number of WriteReq accesses(hits+misses)
system.cpu.dcache.WriteReq_miss_rate::.cpu.data     0.027891                       # miss rate for WriteReq accesses
system.cpu.dcache.WriteReq_miss_rate::total     0.027891                       # miss rate for WriteReq accesses
system.cpu.dcache.WriteReq_avg_miss_latency::.cpu.data 49356.176630                       # average WriteReq miss latency
system.cpu.dcache.WriteReq_avg_miss_latency::total 49356.176630                       # average WriteReq miss latency
system.cpu.dcache.WriteReq_mshr_hits::.cpu.data        61887                       # number of WriteReq MSHR hits
system.cpu.dcache.WriteReq_mshr_hits::total        61887                       # number of WriteReq MSHR hits
system.cpu.dcache.WriteReq_mshr_misses::.cpu.data       243498                       # number of WriteReq MSHR misses
system.cpu.dcache.WriteReq_mshr_misses::total       243498                       # number of WriteReq MSHR misses
system.cpu.dcache.WriteReq_mshr_miss_latency::.cpu.data  13257836500                       # number of WriteReq MSHR miss cycles
system.cpu.dcache.WriteReq_mshr_miss_latency::total  13257836500                       # number of WriteReq MSHR miss cycles
system.cpu.dcache.WriteReq_mshr_miss_rate::.cpu.data     0.022239                       # mshr miss rate for WriteReq accesses
system.cpu.dcache.WriteReq_mshr_miss_rate::total     0.022239                       # mshr miss rate for WriteReq accesses
system.cpu.dcache.WriteReq_avg_mshr_miss_latency::.cpu.data 54447.414352                       # average WriteReq mshr miss latency
system.cpu.dcache.WriteReq_avg_mshr_miss_latency::total 54447.414352                       # average WriteReq mshr miss latency
system.cpu.dcache.SoftPFReq_hits::.cpu.data          510                       # number of SoftPFReq hits
system.cpu.dcache.SoftPFReq_hits::total           510                       # number of SoftPFReq hits
system.cpu.dcache.SoftPFReq_misses::.cpu.data         7909                       # number of SoftPFReq misses
system.cpu.dcache.SoftPFReq_misses::total         7909                       # number of SoftPFReq misses
system.cpu.dcache.SoftPFReq_accesses::.cpu.data         8419                       # number of SoftPFReq accesses(hits+misses)
system.cpu.dcache.SoftPFReq_accesses::total         8419                       # number of SoftPFReq accesses(hits+misses)
system.cpu.dcache.SoftPFReq_miss_rate::.cpu.data     0.939423                       # miss rate for SoftPFReq accesses
system.cpu.dcache.SoftPFReq_miss_rate::total     0.939423                       # miss rate for SoftPFReq accesses
system.cpu.dcache.SoftPFReq_mshr_misses::.cpu.data         7905                       # number of SoftPFReq MSHR misses
system.cpu.dcache.SoftPFReq_mshr_misses::total         7905                       # number of SoftPFReq MSHR misses
system.cpu.dcache.SoftPFReq_mshr_miss_latency::.cpu.data    698338999                       # number of SoftPFReq MSHR miss cycles
system.cpu.dcache.SoftPFReq_mshr_miss_latency::total    698338999                       # number of SoftPFReq MSHR miss cycles
system.cpu.dcache.SoftPFReq_mshr_miss_rate::.cpu.data     0.938948                       # mshr miss rate for SoftPFReq accesses
system.cpu.dcache.SoftPFReq_mshr_miss_rate::total     0.938948                       # mshr miss rate for SoftPFReq accesses
system.cpu.dcache.SoftPFReq_avg_mshr_miss_latency::.cpu.data 88341.429349                       # average SoftPFReq mshr miss latency
system.cpu.dcache.SoftPFReq_avg_mshr_miss_latency::total 88341.429349                       # average SoftPFReq mshr miss latency
system.cpu.dcache.LoadLockedReq_hits::.cpu.data           38                       # number of LoadLockedReq hits
system.cpu.dcache.LoadLockedReq_hits::total           38                       # number of LoadLockedReq hits
system.cpu.dcache.LoadLockedReq_accesses::.cpu.data           38                       # number of LoadLockedReq accesses(hits+misses)
system.cpu.dcache.LoadLockedReq_accesses::total           38                       # number of LoadLockedReq accesses(hits+misses)
system.cpu.dcache.StoreCondReq_hits::.cpu.data           38                       # number of StoreCondReq hits
system.cpu.dcache.StoreCondReq_hits::total           38                       # number of StoreCondReq hits
system.cpu.dcache.StoreCondReq_accesses::.cpu.data           38                       # number of StoreCondReq accesses(hits+misses)
system.cpu.dcache.StoreCondReq_accesses::total           38                       # number of StoreCondReq accesses(hits+misses)
system.cpu.dcache.power_state.pwrStateResidencyTicks::UNDEFINED  82235658000                       # Cumulative time (in ticks) in various power states
system.cpu.dcache.tags.tagsinuse          2011.758292                       # Cycle average of tags in use
system.cpu.dcache.tags.total_refs            52008364                       # Total number of references to valid blocks.
system.cpu.dcache.tags.sampled_refs            526779                       # Sample count of references to valid blocks.
system.cpu.dcache.tags.avg_refs             98.729000                       # Average number of references to valid blocks.
system.cpu.dcache.tags.warmup_cycle            176500                       # Cycle when the warmup percentage was hit.
system.cpu.dcache.tags.occ_blocks::.cpu.data  2011.758292                       # Average occupied blocks per requestor
system.cpu.dcache.tags.occ_percent::.cpu.data     0.982304                       # Average percentage of cache occupancy
system.cpu.dcache.tags.occ_percent::total     0.982304                       # Average percentage of cache occupancy
system.cpu.dcache.tags.occ_task_id_blocks::1024         2048                       # Occupied blocks per task id
system.cpu.dcache.tags.age_task_id_blocks_1024::0          153                       # Occupied blocks per task id
system.cpu.dcache.tags.age_task_id_blocks_1024::1          598                       # Occupied blocks per task id
system.cpu.dcache.tags.age_task_id_blocks_1024::2         1240                       # Occupied blocks per task id
system.cpu.dcache.tags.age_task_id_blocks_1024::3           56                       # Occupied blocks per task id
system.cpu.dcache.tags.age_task_id_blocks_1024::4            1                       # Occupied blocks per task id
system.cpu.dcache.tags.occ_task_id_percent::1024            1                       # Percentage of cache occupancy per task id
system.cpu.dcache.tags.tag_accesses         104668419                       # Number of tag accesses
system.cpu.dcache.tags.data_accesses        104668419                       # Number of data accesses
system.cpu.dcache.tags.power_state.pwrStateResidencyTicks::UNDEFINED  82235658000                       # Cumulative time (in ticks) in various power states
system.cpu.dtb.instHits                             0                       # ITB inst hits
system.cpu.dtb.instMisses                           0                       # ITB inst misses
system.cpu.dtb.readHits                             0                       # DTB read hits
system.cpu.dtb.readMisses                           0                       # DTB read misses
system.cpu.dtb.writeHits                            0                       # DTB write hits
system.cpu.dtb.writeMisses                          0                       # DTB write misses
system.cpu.dtb.inserts                              0                       # Number of times an entry is inserted into the TLB
system.cpu.dtb.flushTlb                             0                       # Number of times complete TLB was flushed
system.cpu.dtb.flushTlbMva                          0                       # Number of times TLB was flushed by MVA
system.cpu.dtb.flushTlbMvaAsid                      0                       # Number of times TLB was flushed by MVA & ASID
system.cpu.dtb.flushTlbAsid                         0                       # Number of times TLB was flushed by ASID
system.cpu.dtb.flushedEntries                       0                       # Number of entries that have been flushed from TLB
system.cpu.dtb.alignFaults                          0                       # Number of TLB faults due to alignment restrictions
system.cpu.dtb.prefetchFaults                       0                       # Number of TLB faults due to prefetch
system.cpu.dtb.domainFaults                         0                       # Number of TLB faults due to domain restrictions
system.cpu.dtb.permsFaults                          0                       # Number of TLB faults due to permissions restrictions
system.cpu.dtb.readAccesses                         0                       # DTB read accesses
system.cpu.dtb.writeAccesses                        0                       # DTB write accesses
system.cpu.dtb.instAccesses                         0                       # ITB inst accesses
system.cpu.dtb.hits                                 0                       # Total TLB (inst and data) hits
system.cpu.dtb.misses                               0                       # Total TLB (inst and data) misses
system.cpu.dtb.accesses                             0                       # Total TLB (inst and data) accesses
system.cpu.dtb.stage2_mmu.stage2_tlb.instHits            0                       # ITB inst hits
system.cpu.dtb.stage2_mmu.stage2_tlb.instMisses            0                       # ITB inst misses
system.cpu.dtb.stage2_mmu.stage2_tlb.readHits            0                       # DTB read hits
system.cpu.dtb.stage2_mmu.stage2_tlb.readMisses            0                       # DTB read misses
system.cpu.dtb.stage2_mmu.stage2_tlb.writeHits            0                       # DTB write hits
system.cpu.dtb.stage2_mmu.stage2_tlb.writeMisses            0                       # DTB write misses
system.cpu.dtb.stage2_mmu.stage2_tlb.inserts            0                       # Number of times an entry is inserted into the TLB
system.cpu.dtb.stage2_mmu.stage2_tlb.flushTlb            0                       # Number of times complete TLB was flushed
system.cpu.dtb.stage2_mmu.stage2_tlb.flushTlbMva            0                       # Number of times TLB was flushed by MVA
system.cpu.dtb.stage2_mmu.stage2_tlb.flushTlbMvaAsid            0                       # Number of times TLB was flushed by MVA & ASID
system.cpu.dtb.stage2_mmu.stage2_tlb.flushTlbAsid            0                       # Number of times TLB was flushed by ASID
system.cpu.dtb.stage2_mmu.stage2_tlb.flushedEntries            0                       # Number of entries that have been flushed from TLB
system.cpu.dtb.stage2_mmu.stage2_tlb.alignFaults            0                       # Number of TLB faults due to alignment restrictions
system.cpu.dtb.stage2_mmu.stage2_tlb.prefetchFaults            0                       # Number of TLB faults due to prefetch
system.cpu.dtb.stage2_mmu.stage2_tlb.domainFaults            0                       # Number of TLB faults due to domain restrictions
system.cpu.dtb.stage2_mmu.stage2_tlb.permsFaults            0                       # Number of TLB faults due to permissions restrictions
system.cpu.dtb.stage2_mmu.stage2_tlb.readAccesses            0                       # DTB read accesses
system.cpu.dtb.stage2_mmu.stage2_tlb.writeAccesses            0                       # DTB write accesses
system.cpu.dtb.stage2_mmu.stage2_tlb.instAccesses            0                       # ITB inst accesses
system.cpu.dtb.stage2_mmu.stage2_tlb.hits            0                       # Total TLB (inst and data) hits
system.cpu.dtb.stage2_mmu.stage2_tlb.misses            0                       # Total TLB (inst and data) misses
system.cpu.dtb.stage2_mmu.stage2_tlb.accesses            0                       # Total TLB (inst and data) accesses
system.cpu.dtb.stage2_mmu.stage2_tlb.walker.walks            0                       # Table walker walks requested
system.cpu.dtb.stage2_mmu.stage2_tlb.walker.requestOrigin_Requested::Data            0                       # Table walker requests started/completed, data/inst
system.cpu.dtb.stage2_mmu.stage2_tlb.walker.requestOrigin_Requested::Inst            0                       # Table walker requests started/completed, data/inst
system.cpu.dtb.stage2_mmu.stage2_tlb.walker.requestOrigin_Requested::total            0                       # Table walker requests started/completed, data/inst
system.cpu.dtb.stage2_mmu.stage2_tlb.walker.requestOrigin_Completed::Data            0                       # Table walker requests started/completed, data/inst
system.cpu.dtb.stage2_mmu.stage2_tlb.walker.requestOrigin_Completed::Inst            0                       # Table walker requests started/completed, data/inst
system.cpu.dtb.stage2_mmu.stage2_tlb.walker.requestOrigin_Completed::total            0                       # Table walker requests started/completed, data/inst
system.cpu.dtb.stage2_mmu.stage2_tlb.walker.requestOrigin::total            0                       # Table walker requests started/completed, data/inst
system.cpu.dtb.stage2_mmu.stage2_tlb.walker.power_state.pwrStateResidencyTicks::UNDEFINED  82235658000                       # Cumulative time (in ticks) in various power states
system.cpu.dtb.walker.walks                         0                       # Table walker walks requested
system.cpu.dtb.walker.requestOrigin_Requested::Data            0                       # Table walker requests started/completed, data/inst
system.cpu.dtb.walker.requestOrigin_Requested::Inst            0                       # Table walker requests started/completed, data/inst
system.cpu.dtb.walker.requestOrigin_Requested::total            0                       # Table walker requests started/completed, data/inst
system.cpu.dtb.walker.requestOrigin_Completed::Data            0                       # Table walker requests started/completed, data/inst
system.cpu.dtb.walker.requestOrigin_Completed::Inst            0                       # Table walker requests started/completed, data/inst
system.cpu.dtb.walker.requestOrigin_Completed::total            0                       # Table walker requests started/completed, data/inst
system.cpu.dtb.walker.requestOrigin::total            0                       # Table walker requests started/completed, data/inst
system.cpu.dtb.walker.power_state.pwrStateResidencyTicks::UNDEFINED  82235658000                       # Cumulative time (in ticks) in various power states
system.cpu.fetch2.intInstructions            42685741                       # Number of integer instructions successfully decoded
system.cpu.fetch2.fpInstructions                    0                       # Number of floating point instructions successfully decoded
system.cpu.fetch2.vecInstructions                   0                       # Number of SIMD instructions successfully decoded
system.cpu.fetch2.loadInstructions           43474856                       # Number of memory load instructions successfully decoded
system.cpu.fetch2.storeInstructions          11024781                       # Number of memory store instructions successfully decoded
system.cpu.fetch2.amoInstructions                   0                       # Number of memory atomic instructions successfully decoded
system.cpu.icache.demand_hits::.cpu.inst     10277756                       # number of demand (read+write) hits
system.cpu.icache.demand_hits::total         10277756                       # number of demand (read+write) hits
system.cpu.icache.overall_hits::.cpu.inst     10277756                       # number of overall hits
system.cpu.icache.overall_hits::total        10277756                       # number of overall hits
system.cpu.icache.demand_misses::.cpu.inst          700                       # number of demand (read+write) misses
system.cpu.icache.demand_misses::total            700                       # number of demand (read+write) misses
system.cpu.icache.overall_misses::.cpu.inst          700                       # number of overall misses
system.cpu.icache.overall_misses::total           700                       # number of overall misses
system.cpu.icache.demand_miss_latency::.cpu.inst     53603500                       # number of demand (read+write) miss cycles
system.cpu.icache.demand_miss_latency::total     53603500                       # number of demand (read+write) miss cycles
system.cpu.icache.overall_miss_latency::.cpu.inst     53603500                       # number of overall miss cycles
system.cpu.icache.overall_miss_latency::total     53603500                       # number of overall miss cycles
system.cpu.icache.demand_accesses::.cpu.inst     10278456                       # number of demand (read+write) accesses
system.cpu.icache.demand_accesses::total     10278456                       # number of demand (read+write) accesses
system.cpu.icache.overall_accesses::.cpu.inst     10278456                       # number of overall (read+write) accesses
system.cpu.icache.overall_accesses::total     10278456                       # number of overall (read+write) accesses
system.cpu.icache.demand_miss_rate::.cpu.inst     0.000068                       # miss rate for demand accesses
system.cpu.icache.demand_miss_rate::total     0.000068                       # miss rate for demand accesses
system.cpu.icache.overall_miss_rate::.cpu.inst     0.000068                       # miss rate for overall accesses
system.cpu.icache.overall_miss_rate::total     0.000068                       # miss rate for overall accesses
system.cpu.icache.demand_avg_miss_latency::.cpu.inst 76576.428571                       # average overall miss latency
system.cpu.icache.demand_avg_miss_latency::total 76576.428571                       # average overall miss latency
system.cpu.icache.overall_avg_miss_latency::.cpu.inst 76576.428571                       # average overall miss latency
system.cpu.icache.overall_avg_miss_latency::total 76576.428571                       # average overall miss latency
system.cpu.icache.blocked_cycles::no_mshrs            0                       # number of cycles access was blocked
system.cpu.icache.blocked_cycles::no_targets            0                       # number of cycles access was blocked
system.cpu.icache.blocked::no_mshrs                 0                       # number of cycles access was blocked
system.cpu.icache.blocked::no_targets               0                       # number of cycles access was blocked
system.cpu.icache.avg_blocked_cycles::no_mshrs          nan                       # average number of cycles each access was blocked
system.cpu.icache.avg_blocked_cycles::no_targets          nan                       # average number of cycles each access was blocked
system.cpu.icache.writebacks::.writebacks          128                       # number of writebacks
system.cpu.icache.writebacks::total               128                       # number of writebacks
system.cpu.icache.demand_mshr_misses::.cpu.inst          700                       # number of demand (read+write) MSHR misses
system.cpu.icache.demand_mshr_misses::total          700                       # number of demand (read+write) MSHR misses
system.cpu.icache.overall_mshr_misses::.cpu.inst          700                       # number of overall MSHR misses
system.cpu.icache.overall_mshr_misses::total          700                       # number of overall MSHR misses
system.cpu.icache.demand_mshr_miss_latency::.cpu.inst     52903500                       # number of demand (read+write) MSHR miss cycles
system.cpu.icache.demand_mshr_miss_latency::total     52903500                       # number of demand (read+write) MSHR miss cycles
system.cpu.icache.overall_mshr_miss_latency::.cpu.inst     52903500                       # number of overall MSHR miss cycles
system.cpu.icache.overall_mshr_miss_latency::total     52903500                       # number of overall MSHR miss cycles
system.cpu.icache.demand_mshr_miss_rate::.cpu.inst     0.000068                       # mshr miss rate for demand accesses
system.cpu.icache.demand_mshr_miss_rate::total     0.000068                       # mshr miss rate for demand accesses
system.cpu.icache.overall_mshr_miss_rate::.cpu.inst     0.000068                       # mshr miss rate for overall accesses
system.cpu.icache.overall_mshr_miss_rate::total     0.000068                       # mshr miss rate for overall accesses
system.cpu.icache.demand_avg_mshr_miss_latency::.cpu.inst 75576.428571                       # average overall mshr miss latency
system.cpu.icache.demand_avg_mshr_miss_latency::total 75576.428571                       # average overall mshr miss latency
system.cpu.icache.overall_avg_mshr_miss_latency::.cpu.inst 75576.428571                       # average overall mshr miss latency
system.cpu.icache.overall_avg_mshr_miss_latency::total 75576.428571                       # average overall mshr miss latency
system.cpu.icache.replacements                    128                       # number of replacements
system.cpu.icache.ReadReq_hits::.cpu.inst     10277756                       # number of ReadReq hits
system.cpu.icache.ReadReq_hits::total        10277756                       # number of ReadReq hits
system.cpu.icache.ReadReq_misses::.cpu.inst          700                       # number of ReadReq misses
system.cpu.icache.ReadReq_misses::total           700                       # number of ReadReq misses
system.cpu.icache.ReadReq_miss_latency::.cpu.inst     53603500                       # number of ReadReq miss cycles
system.cpu.icache.ReadReq_miss_latency::total     53603500                       # number of ReadReq miss cycles
system.cpu.icache.ReadReq_accesses::.cpu.inst     10278456                       # number of ReadReq accesses(hits+misses)
system.cpu.icache.ReadReq_accesses::total     10278456                       # number of ReadReq accesses(hits+misses)
system.cpu.icache.ReadReq_miss_rate::.cpu.inst     0.000068                       # miss rate for ReadReq accesses
system.cpu.icache.ReadReq_miss_rate::total     0.000068                       # miss rate for ReadReq accesses
system.cpu.icache.ReadReq_avg_miss_latency::.cpu.inst 76576.428571                       # average ReadReq miss latency
system.cpu.icache.ReadReq_avg_miss_latency::total 76576.428571                       # average ReadReq miss latency
system.cpu.icache.ReadReq_mshr_misses::.cpu.inst          700                       # number of ReadReq MSHR misses
system.cpu.icache.ReadReq_mshr_misses::total          700                       # number of ReadReq MSHR misses
system.cpu.icache.ReadReq_mshr_miss_latency::.cpu.inst     52903500                       # number of ReadReq MSHR miss cycles
system.cpu.icache.ReadReq_mshr_miss_latency::total     52903500                       # number of ReadReq MSHR miss cycles
system.cpu.icache.ReadReq_mshr_miss_rate::.cpu.inst     0.000068                       # mshr miss rate for ReadReq accesses
system.cpu.icache.ReadReq_mshr_miss_rate::total     0.000068                       # mshr miss rate for ReadReq accesses
system.cpu.icache.ReadReq_avg_mshr_miss_latency::.cpu.inst 75576.428571                       # average ReadReq mshr miss latency
system.cpu.icache.ReadReq_avg_mshr_miss_latency::total 75576.428571                       # average ReadReq mshr miss latency
system.cpu.icache.power_state.pwrStateResidencyTicks::UNDEFINED  82235658000                       # Cumulative time (in ticks) in various power states
system.cpu.icache.tags.tagsinuse           459.738995                       # Cycle average of tags in use
system.cpu.icache.tags.total_refs            10278456                       # Total number of references to valid blocks.
system.cpu.icache.tags.sampled_refs               700                       # Sample count of references to valid blocks.
system.cpu.icache.tags.avg_refs          14683.508571                       # Average number of references to valid blocks.
system.cpu.icache.tags.warmup_cycle             87500                       # Cycle when the warmup percentage was hit.
system.cpu.icache.tags.occ_blocks::.cpu.inst   459.738995                       # Average occupied blocks per requestor
system.cpu.icache.tags.occ_percent::.cpu.inst     0.448964                       # Average percentage of cache occupancy
system.cpu.icache.tags.occ_percent::total     0.448964                       # Average percentage of cache occupancy
system.cpu.icache.tags.occ_task_id_blocks::1024          572                       # Occupied blocks per task id
system.cpu.icache.tags.age_task_id_blocks_1024::3          107                       # Occupied blocks per task id
system.cpu.icache.tags.age_task_id_blocks_1024::4          465                       # Occupied blocks per task id
system.cpu.icache.tags.occ_task_id_percent::1024     0.558594                       # Percentage of cache occupancy per task id
system.cpu.icache.tags.tag_accesses          20557612                       # Number of tag accesses
system.cpu.icache.tags.data_accesses         20557612                       # Number of data accesses
system.cpu.icache.tags.power_state.pwrStateResidencyTicks::UNDEFINED  82235658000                       # Cumulative time (in ticks) in various power states
system.cpu.itb.instHits                             0                       # ITB inst hits
system.cpu.itb.instMisses                           0                       # ITB inst misses
system.cpu.itb.readHits                             0                       # DTB read hits
system.cpu.itb.readMisses                           0                       # DTB read misses
system.cpu.itb.writeHits                            0                       # DTB write hits
system.cpu.itb.writeMisses                          0                       # DTB write misses
system.cpu.itb.inserts                              0                       # Number of times an entry is inserted into the TLB
system.cpu.itb.flushTlb                             0                       # Number of times complete TLB was flushed
system.cpu.itb.flushTlbMva                          0                       # Number of times TLB was flushed by MVA
system.cpu.itb.flushTlbMvaAsid                      0                       # Number of times TLB was flushed by MVA & ASID
system.cpu.itb.flushTlbAsid                         0                       # Number of times TLB was flushed by ASID
system.cpu.itb.flushedEntries                       0                       # Number of entries that have been flushed from TLB
system.cpu.itb.alignFaults                          0                       # Number of TLB faults due to alignment restrictions
system.cpu.itb.prefetchFaults                       0                       # Number of TLB faults due to prefetch
system.cpu.itb.domainFaults                         0                       # Number of TLB faults due to domain restrictions
system.cpu.itb.permsFaults                          0                       # Number of TLB faults due to permissions restrictions
system.cpu.itb.readAccesses                         0                       # DTB read accesses
system.cpu.itb.writeAccesses                        0                       # DTB write accesses
system.cpu.itb.instAccesses                         0                       # ITB inst accesses
system.cpu.itb.hits                                 0                       # Total TLB (inst and data) hits
system.cpu.itb.misses                               0                       # Total TLB (inst and data) misses
system.cpu.itb.accesses                             0                       # Total TLB (inst and data) accesses
system.cpu.itb.stage2_mmu.stage2_tlb.instHits            0                       # ITB inst hits
system.cpu.itb.stage2_mmu.stage2_tlb.instMisses            0                       # ITB inst misses
system.cpu.itb.stage2_mmu.stage2_tlb.readHits            0                       # DTB read hits
system.cpu.itb.stage2_mmu.stage2_tlb.readMisses            0                       # DTB read misses
system.cpu.itb.stage2_mmu.stage2_tlb.writeHits            0                       # DTB write hits
system.cpu.itb.stage2_mmu.stage2_tlb.writeMisses            0                       # DTB write misses
system.cpu.itb.stage2_mmu.stage2_tlb.inserts            0                       # Number of times an entry is inserted into the TLB
system.cpu.itb.stage2_mmu.stage2_tlb.flushTlb            0                       # Number of times complete TLB was flushed
system.cpu.itb.stage2_mmu.stage2_tlb.flushTlbMva            0                       # Number of times TLB was flushed by MVA
system.cpu.itb.stage2_mmu.stage2_tlb.flushTlbMvaAsid            0                       # Number of times TLB was flushed by MVA & ASID
system.cpu.itb.stage2_mmu.stage2_tlb.flushTlbAsid            0                       # Number of times TLB was flushed by ASID
system.cpu.itb.stage2_mmu.stage2_tlb.flushedEntries            0                       # Number of entries that have been flushed from TLB
system.cpu.itb.stage2_mmu.stage2_tlb.alignFaults            0                       # Number of TLB faults due to alignment restrictions
system.cpu.itb.stage2_mmu.stage2_tlb.prefetchFaults            0                       # Number of TLB faults due to prefetch
system.cpu.itb.stage2_mmu.stage2_tlb.domainFaults            0                       # Number of TLB faults due to domain restrictions
system.cpu.itb.stage2_mmu.stage2_tlb.permsFaults            0                       # Number of TLB faults due to permissions restrictions
system.cpu.itb.stage2_mmu.stage2_tlb.readAccesses            0                       # DTB read accesses
system.cpu.itb.stage2_mmu.stage2_tlb.writeAccesses            0                       # DTB write accesses
system.cpu.itb.stage2_mmu.stage2_tlb.instAccesses            0                       # ITB inst accesses
system.cpu.itb.stage2_mmu.stage2_tlb.hits            0                       # Total TLB (inst and data) hits
system.cpu.itb.stage2_mmu.stage2_tlb.misses            0                       # Total TLB (inst and data) misses
system.cpu.itb.stage2_mmu.stage2_tlb.accesses            0                       # Total TLB (inst and data) accesses
system.cpu.itb.stage2_mmu.stage2_tlb.walker.walks            0                       # Table walker walks requested
system.cpu.itb.stage2_mmu.stage2_tlb.walker.requestOrigin_Requested::Data            0                       # Table walker requests started/completed, data/inst
system.cpu.itb.stage2_mmu.stage2_tlb.walker.requestOrigin_Requested::Inst            0                       # Table walker requests started/completed, data/inst
system.cpu.itb.stage2_mmu.stage2_tlb.walker.requestOrigin_Requested::total            0                       # Table walker requests started/completed, data/inst
system.cpu.itb.stage2_mmu.stage2_tlb.walker.requestOrigin_Completed::Data            0                       # Table walker requests started/completed, data/inst
system.cpu.itb.stage2_mmu.stage2_tlb.walker.requestOrigin_Completed::Inst            0                       # Table walker requests started/completed, data/inst
system.cpu.itb.stage2_mmu.stage2_tlb.walker.requestOrigin_Completed::total            0                       # Table walker requests started/completed, data/inst
system.cpu.itb.stage2_mmu.stage2_tlb.walker.requestOrigin::total            0                       # Table walker requests started/completed, data/inst
system.cpu.itb.stage2_mmu.stage2_tlb.walker.power_state.pwrStateResidencyTicks::UNDEFINED  82235658000                       # Cumulative time (in ticks) in various power states
system.cpu.itb.walker.walks                         0                       # Table walker walks requested
system.cpu.itb.walker.requestOrigin_Requested::Data            0                       # Table walker requests started/completed, data/inst
system.cpu.itb.walker.requestOrigin_Requested::Inst            0                       # Table walker requests started/completed, data/inst
system.cpu.itb.walker.requestOrigin_Requested::total            0                       # Table walker requests started/completed, data/inst
system.cpu.itb.walker.requestOrigin_Completed::Data            0                       # Table walker requests started/completed, data/inst
system.cpu.itb.walker.requestOrigin_Completed::Inst            0                       # Table walker requests started/completed, data/inst
system.cpu.itb.walker.requestOrigin_Completed::total            0                       # Table walker requests started/completed, data/inst
system.cpu.itb.walker.requestOrigin::total            0                       # Table walker requests started/completed, data/inst
system.cpu.itb.walker.power_state.pwrStateResidencyTicks::UNDEFINED  82235658000                       # Cumulative time (in ticks) in various power states
system.cpu.power_state.pwrStateResidencyTicks::ON  82235658000                       # Cumulative time (in ticks) in various power states
system.cpu.thread0.numInsts                 100000001                       # Number of Instructions committed
system.cpu.thread0.numOps                   100196356                       # Number of Ops committed
system.cpu.thread0.numMemRefs                       0                       # Number of Memory References
system.cpu_clk_domain.clock                       500                       # Clock period in ticks
system.cpu_voltage_domain.voltage                   1                       # Voltage in Volts
system.l2.demand_hits::.cpu.inst                   43                       # number of demand (read+write) hits
system.l2.demand_hits::.cpu.data               325645                       # number of demand (read+write) hits
system.l2.demand_hits::total                   325688                       # number of demand (read+write) hits
system.l2.overall_hits::.cpu.inst                  43                       # number of overall hits
system.l2.overall_hits::.cpu.data              325645                       # number of overall hits
system.l2.overall_hits::total                  325688                       # number of overall hits
system.l2.demand_misses::.cpu.inst                657                       # number of demand (read+write) misses
system.l2.demand_misses::.cpu.data             201134                       # number of demand (read+write) misses
system.l2.demand_misses::total                 201791                       # number of demand (read+write) misses
system.l2.overall_misses::.cpu.inst               657                       # number of overall misses
system.l2.overall_misses::.cpu.data            201134                       # number of overall misses
system.l2.overall_misses::total                201791                       # number of overall misses
system.l2.demand_miss_latency::.cpu.inst     51383500                       # number of demand (read+write) miss cycles
system.l2.demand_miss_latency::.cpu.data  16978553000                       # number of demand (read+write) miss cycles
system.l2.demand_miss_latency::total      17029936500                       # number of demand (read+write) miss cycles
system.l2.overall_miss_latency::.cpu.inst     51383500                       # number of overall miss cycles
system.l2.overall_miss_latency::.cpu.data  16978553000                       # number of overall miss cycles
system.l2.overall_miss_latency::total     17029936500                       # number of overall miss cycles
system.l2.demand_accesses::.cpu.inst              700                       # number of demand (read+write) accesses
system.l2.demand_accesses::.cpu.data           526779                       # number of demand (read+write) accesses
system.l2.demand_accesses::total               527479                       # number of demand (read+write) accesses
system.l2.overall_accesses::.cpu.inst             700                       # number of overall (read+write) accesses
system.l2.overall_accesses::.cpu.data          526779                       # number of overall (read+write) accesses
system.l2.overall_accesses::total              527479                       # number of overall (read+write) accesses
system.l2.demand_miss_rate::.cpu.inst        0.938571                       # miss rate for demand accesses
system.l2.demand_miss_rate::.cpu.data        0.381819                       # miss rate for demand accesses
system.l2.demand_miss_rate::total            0.382557                       # miss rate for demand accesses
system.l2.overall_miss_rate::.cpu.inst       0.938571                       # miss rate for overall accesses
system.l2.overall_miss_rate::.cpu.data       0.381819                       # miss rate for overall accesses
system.l2.overall_miss_rate::total           0.382557                       # miss rate for overall accesses
system.l2.demand_avg_miss_latency::.cpu.inst 78209.284627                       # average overall miss latency
system.l2.demand_avg_miss_latency::.cpu.data 84414.136844                       # average overall miss latency
system.l2.demand_avg_miss_latency::total 84393.934814                       # average overall miss latency
system.l2.overall_avg_miss_latency::.cpu.inst 78209.284627                       # average overall miss latency
system.l2.overall_avg_miss_latency::.cpu.data 84414.136844                       # average overall miss latency
system.l2.overall_avg_miss_latency::total 84393.934814                       # average overall miss latency
system.l2.blocked_cycles::no_mshrs                  0                       # number of cycles access was blocked
system.l2.blocked_cycles::no_targets                0                       # number of cycles access was blocked
system.l2.blocked::no_mshrs                         0                       # number of cycles access was blocked
system.l2.blocked::no_targets                       0                       # number of cycles access was blocked
system.l2.avg_blocked_cycles::no_mshrs            nan                       # average number of cycles each access was blocked
system.l2.avg_blocked_cycles::no_targets          nan                       # average number of cycles each access was blocked
system.l2.writebacks::.writebacks              111015                       # number of writebacks
system.l2.writebacks::total                    111015                       # number of writebacks
system.l2.demand_mshr_hits::.cpu.data               6                       # number of demand (read+write) MSHR hits
system.l2.demand_mshr_hits::total                   6                       # number of demand (read+write) MSHR hits
system.l2.overall_mshr_hits::.cpu.data              6                       # number of overall MSHR hits
system.l2.overall_mshr_hits::total                  6                       # number of overall MSHR hits
system.l2.demand_mshr_misses::.cpu.inst           657                       # number of demand (read+write) MSHR misses
system.l2.demand_mshr_misses::.cpu.data        201128                       # number of demand (read+write) MSHR misses
system.l2.demand_mshr_misses::total            201785                       # number of demand (read+write) MSHR misses
system.l2.overall_mshr_misses::.cpu.inst          657                       # number of overall MSHR misses
system.l2.overall_mshr_misses::.cpu.data       201128                       # number of overall MSHR misses
system.l2.overall_mshr_misses::total           201785                       # number of overall MSHR misses
system.l2.demand_mshr_miss_latency::.cpu.inst     44813500                       # number of demand (read+write) MSHR miss cycles
system.l2.demand_mshr_miss_latency::.cpu.data  14966895500                       # number of demand (read+write) MSHR miss cycles
system.l2.demand_mshr_miss_latency::total  15011709000                       # number of demand (read+write) MSHR miss cycles
system.l2.overall_mshr_miss_latency::.cpu.inst     44813500                       # number of overall MSHR miss cycles
system.l2.overall_mshr_miss_latency::.cpu.data  14966895500                       # number of overall MSHR miss cycles
system.l2.overall_mshr_miss_latency::total  15011709000                       # number of overall MSHR miss cycles
system.l2.demand_mshr_miss_rate::.cpu.inst     0.938571                       # mshr miss rate for demand accesses
system.l2.demand_mshr_miss_rate::.cpu.data     0.381807                       # mshr miss rate for demand accesses
system.l2.demand_mshr_miss_rate::total       0.382546                       # mshr miss rate for demand accesses
system.l2.overall_mshr_miss_rate::.cpu.inst     0.938571                       # mshr miss rate for overall accesses
system.l2.overall_mshr_miss_rate::.cpu.data     0.381807                       # mshr miss rate for overall accesses
system.l2.overall_mshr_miss_rate::total      0.382546                       # mshr miss rate for overall accesses
system.l2.demand_avg_mshr_miss_latency::.cpu.inst 68209.284627                       # average overall mshr miss latency
system.l2.demand_avg_mshr_miss_latency::.cpu.data 74414.778151                       # average overall mshr miss latency
system.l2.demand_avg_mshr_miss_latency::total 74394.573432                       # average overall mshr miss latency
system.l2.overall_avg_mshr_miss_latency::.cpu.inst 68209.284627                       # average overall mshr miss latency
system.l2.overall_avg_mshr_miss_latency::.cpu.data 74414.778151                       # average overall mshr miss latency
system.l2.overall_avg_mshr_miss_latency::total 74394.573432                       # average overall mshr miss latency
system.l2.replacements                         169072                       # number of replacements
system.l2.WritebackDirty_hits::.writebacks       450554                       # number of WritebackDirty hits
system.l2.WritebackDirty_hits::total           450554                       # number of WritebackDirty hits
system.l2.WritebackDirty_accesses::.writebacks       450554                       # number of WritebackDirty accesses(hits+misses)
system.l2.WritebackDirty_accesses::total       450554                       # number of WritebackDirty accesses(hits+misses)
system.l2.WritebackClean_hits::.writebacks          123                       # number of WritebackClean hits
system.l2.WritebackClean_hits::total              123                       # number of WritebackClean hits
system.l2.WritebackClean_accesses::.writebacks          123                       # number of WritebackClean accesses(hits+misses)
system.l2.WritebackClean_accesses::total          123                       # number of WritebackClean accesses(hits+misses)
system.l2.CleanEvict_mshr_misses::.writebacks            1                       # number of CleanEvict MSHR misses
system.l2.CleanEvict_mshr_misses::total             1                       # number of CleanEvict MSHR misses
system.l2.CleanEvict_mshr_miss_rate::.writebacks          inf                       # mshr miss rate for CleanEvict accesses
system.l2.CleanEvict_mshr_miss_rate::total          inf                       # mshr miss rate for CleanEvict accesses
system.l2.ReadExReq_hits::.cpu.data            107415                       # number of ReadExReq hits
system.l2.ReadExReq_hits::total                107415                       # number of ReadExReq hits
system.l2.ReadExReq_misses::.cpu.data          136083                       # number of ReadExReq misses
system.l2.ReadExReq_misses::total              136083                       # number of ReadExReq misses
system.l2.ReadExReq_miss_latency::.cpu.data  11763641500                       # number of ReadExReq miss cycles
system.l2.ReadExReq_miss_latency::total   11763641500                       # number of ReadExReq miss cycles
system.l2.ReadExReq_accesses::.cpu.data        243498                       # number of ReadExReq accesses(hits+misses)
system.l2.ReadExReq_accesses::total            243498                       # number of ReadExReq accesses(hits+misses)
system.l2.ReadExReq_miss_rate::.cpu.data     0.558867                       # miss rate for ReadExReq accesses
system.l2.ReadExReq_miss_rate::total         0.558867                       # miss rate for ReadExReq accesses
system.l2.ReadExReq_avg_miss_latency::.cpu.data 86444.607335                       # average ReadExReq miss latency
system.l2.ReadExReq_avg_miss_latency::total 86444.607335                       # average ReadExReq miss latency
system.l2.ReadExReq_mshr_misses::.cpu.data       136083                       # number of ReadExReq MSHR misses
system.l2.ReadExReq_mshr_misses::total         136083                       # number of ReadExReq MSHR misses
system.l2.ReadExReq_mshr_miss_latency::.cpu.data  10402811500                       # number of ReadExReq MSHR miss cycles
system.l2.ReadExReq_mshr_miss_latency::total  10402811500                       # number of ReadExReq MSHR miss cycles
system.l2.ReadExReq_mshr_miss_rate::.cpu.data     0.558867                       # mshr miss rate for ReadExReq accesses
system.l2.ReadExReq_mshr_miss_rate::total     0.558867                       # mshr miss rate for ReadExReq accesses
system.l2.ReadExReq_avg_mshr_miss_latency::.cpu.data 76444.607335                       # average ReadExReq mshr miss latency
system.l2.ReadExReq_avg_mshr_miss_latency::total 76444.607335                       # average ReadExReq mshr miss latency
system.l2.ReadCleanReq_hits::.cpu.inst             43                       # number of ReadCleanReq hits
system.l2.ReadCleanReq_hits::total                 43                       # number of ReadCleanReq hits
system.l2.ReadCleanReq_misses::.cpu.inst          657                       # number of ReadCleanReq misses
system.l2.ReadCleanReq_misses::total              657                       # number of ReadCleanReq misses
system.l2.ReadCleanReq_miss_latency::.cpu.inst     51383500                       # number of ReadCleanReq miss cycles
system.l2.ReadCleanReq_miss_latency::total     51383500                       # number of ReadCleanReq miss cycles
system.l2.ReadCleanReq_accesses::.cpu.inst          700                       # number of ReadCleanReq accesses(hits+misses)
system.l2.ReadCleanReq_accesses::total            700                       # number of ReadCleanReq accesses(hits+misses)
system.l2.ReadCleanReq_miss_rate::.cpu.inst     0.938571                       # miss rate for ReadCleanReq accesses
system.l2.ReadCleanReq_miss_rate::total      0.938571                       # miss rate for ReadCleanReq accesses
system.l2.ReadCleanReq_avg_miss_latency::.cpu.inst 78209.284627                       # average ReadCleanReq miss latency
system.l2.ReadCleanReq_avg_miss_latency::total 78209.284627                       # average ReadCleanReq miss latency
system.l2.ReadCleanReq_mshr_misses::.cpu.inst          657                       # number of ReadCleanReq MSHR misses
system.l2.ReadCleanReq_mshr_misses::total          657                       # number of ReadCleanReq MSHR misses
system.l2.ReadCleanReq_mshr_miss_latency::.cpu.inst     44813500                       # number of ReadCleanReq MSHR miss cycles
system.l2.ReadCleanReq_mshr_miss_latency::total     44813500                       # number of ReadCleanReq MSHR miss cycles
system.l2.ReadCleanReq_mshr_miss_rate::.cpu.inst     0.938571                       # mshr miss rate for ReadCleanReq accesses
system.l2.ReadCleanReq_mshr_miss_rate::total     0.938571                       # mshr miss rate for ReadCleanReq accesses
system.l2.ReadCleanReq_avg_mshr_miss_latency::.cpu.inst 68209.284627                       # average ReadCleanReq mshr miss latency
system.l2.ReadCleanReq_avg_mshr_miss_latency::total 68209.284627                       # average ReadCleanReq mshr miss latency
system.l2.ReadSharedReq_hits::.cpu.data        218230                       # number of ReadSharedReq hits
system.l2.ReadSharedReq_hits::total            218230                       # number of ReadSharedReq hits
system.l2.ReadSharedReq_misses::.cpu.data        65051                       # number of ReadSharedReq misses
system.l2.ReadSharedReq_misses::total           65051                       # number of ReadSharedReq misses
system.l2.ReadSharedReq_miss_latency::.cpu.data   5214911500                       # number of ReadSharedReq miss cycles
system.l2.ReadSharedReq_miss_latency::total   5214911500                       # number of ReadSharedReq miss cycles
system.l2.ReadSharedReq_accesses::.cpu.data       283281                       # number of ReadSharedReq accesses(hits+misses)
system.l2.ReadSharedReq_accesses::total        283281                       # number of ReadSharedReq accesses(hits+misses)
system.l2.ReadSharedReq_miss_rate::.cpu.data     0.229634                       # miss rate for ReadSharedReq accesses
system.l2.ReadSharedReq_miss_rate::total     0.229634                       # miss rate for ReadSharedReq accesses
system.l2.ReadSharedReq_avg_miss_latency::.cpu.data 80166.507817                       # average ReadSharedReq miss latency
system.l2.ReadSharedReq_avg_miss_latency::total 80166.507817                       # average ReadSharedReq miss latency
system.l2.ReadSharedReq_mshr_hits::.cpu.data            6                       # number of ReadSharedReq MSHR hits
system.l2.ReadSharedReq_mshr_hits::total            6                       # number of ReadSharedReq MSHR hits
system.l2.ReadSharedReq_mshr_misses::.cpu.data        65045                       # number of ReadSharedReq MSHR misses
system.l2.ReadSharedReq_mshr_misses::total        65045                       # number of ReadSharedReq MSHR misses
system.l2.ReadSharedReq_mshr_miss_latency::.cpu.data   4564084000                       # number of ReadSharedReq MSHR miss cycles
system.l2.ReadSharedReq_mshr_miss_latency::total   4564084000                       # number of ReadSharedReq MSHR miss cycles
system.l2.ReadSharedReq_mshr_miss_rate::.cpu.data     0.229613                       # mshr miss rate for ReadSharedReq accesses
system.l2.ReadSharedReq_mshr_miss_rate::total     0.229613                       # mshr miss rate for ReadSharedReq accesses
system.l2.ReadSharedReq_avg_mshr_miss_latency::.cpu.data 70168.099008                       # average ReadSharedReq mshr miss latency
system.l2.ReadSharedReq_avg_mshr_miss_latency::total 70168.099008                       # average ReadSharedReq mshr miss latency
system.l2.power_state.pwrStateResidencyTicks::UNDEFINED  82235658000                       # Cumulative time (in ticks) in various power states
system.l2.tags.tagsinuse                 31880.802476                       # Cycle average of tags in use
system.l2.tags.total_refs                     1052268                       # Total number of references to valid blocks.
system.l2.tags.sampled_refs                    201840                       # Sample count of references to valid blocks.
system.l2.tags.avg_refs                      5.213377                       # Average number of references to valid blocks.
system.l2.tags.warmup_cycle                     77000                       # Cycle when the warmup percentage was hit.
system.l2.tags.occ_blocks::.writebacks      20.962490                       # Average occupied blocks per requestor
system.l2.tags.occ_blocks::.cpu.inst        78.194767                       # Average occupied blocks per requestor
system.l2.tags.occ_blocks::.cpu.data     31781.645219                       # Average occupied blocks per requestor
system.l2.tags.occ_percent::.writebacks      0.000640                       # Average percentage of cache occupancy
system.l2.tags.occ_percent::.cpu.inst        0.002386                       # Average percentage of cache occupancy
system.l2.tags.occ_percent::.cpu.data        0.969899                       # Average percentage of cache occupancy
system.l2.tags.occ_percent::total            0.972925                       # Average percentage of cache occupancy
system.l2.tags.occ_task_id_blocks::1024         32768                       # Occupied blocks per task id
system.l2.tags.age_task_id_blocks_1024::1          137                       # Occupied blocks per task id
system.l2.tags.age_task_id_blocks_1024::2         1171                       # Occupied blocks per task id
system.l2.tags.age_task_id_blocks_1024::3        16022                       # Occupied blocks per task id
system.l2.tags.age_task_id_blocks_1024::4        15438                       # Occupied blocks per task id
system.l2.tags.occ_task_id_percent::1024            1                       # Percentage of cache occupancy per task id
system.l2.tags.tag_accesses                   8620040                       # Number of tag accesses
system.l2.tags.data_accesses                  8620040                       # Number of data accesses
system.l2.tags.power_state.pwrStateResidencyTicks::UNDEFINED  82235658000                       # Cumulative time (in ticks) in various power states
system.mem_ctrls.avgPriority_.writebacks::samples    111015.00                       # Average QoS priority value for accepted requests
system.mem_ctrls.avgPriority_.cpu.inst::samples       657.00                       # Average QoS priority value for accepted requests
system.mem_ctrls.avgPriority_.cpu.data::samples    201097.00                       # Average QoS priority value for accepted requests
system.mem_ctrls.priorityMinLatency      0.000000018750                       # per QoS priority minimum request to response latency (s)
system.mem_ctrls.priorityMaxLatency      0.006226632500                       # per QoS priority maximum request to response latency (s)
system.mem_ctrls.numReadWriteTurnArounds         6651                       # Number of turnarounds from READ to WRITE
system.mem_ctrls.numWriteReadTurnArounds         6651                       # Number of turnarounds from WRITE to READ
system.mem_ctrls.numStayReadState              524797                       # Number of times bus staying in READ state
system.mem_ctrls.numStayWriteState             104492                       # Number of times bus staying in WRITE state
system.mem_ctrls.readReqs                      201785                       # Number of read requests accepted
system.mem_ctrls.writeReqs                     111015                       # Number of write requests accepted
system.mem_ctrls.readBursts                    201785                       # Number of controller read bursts, including those serviced by the write queue
system.mem_ctrls.writeBursts                   111015                       # Number of controller write bursts, including those merged in the write queue
system.mem_ctrls.servicedByWrQ                     31                       # Number of controller read bursts serviced by the write queue
system.mem_ctrls.mergedWrBursts                     0                       # Number of controller write bursts merged with an existing one
system.mem_ctrls.neitherReadNorWriteReqs            0                       # Number of requests that are neither read nor write
system.mem_ctrls.avgRdQLen                       1.09                       # Average read queue length when enqueuing
system.mem_ctrls.avgWrQLen                      24.68                       # Average write queue length when enqueuing
system.mem_ctrls.numRdRetry                         0                       # Number of times read queue was full causing retry
system.mem_ctrls.numWrRetry                         0                       # Number of times write queue was full causing retry
system.mem_ctrls.readPktSize::0                     0                       # Read request sizes (log2)
system.mem_ctrls.readPktSize::1                     0                       # Read request sizes (log2)
system.mem_ctrls.readPktSize::2                     0                       # Read request sizes (log2)
system.mem_ctrls.readPktSize::3                     0                       # Read request sizes (log2)
system.mem_ctrls.readPktSize::4                     0                       # Read request sizes (log2)
system.mem_ctrls.readPktSize::5                     0                       # Read request sizes (log2)
system.mem_ctrls.readPktSize::6                201785                       # Read request sizes (log2)
system.mem_ctrls.writePktSize::0                    0                       # Write request sizes (log2)
system.mem_ctrls.writePktSize::1                    0                       # Write request sizes (log2)
system.mem_ctrls.writePktSize::2                    0                       # Write request sizes (log2)
system.mem_ctrls.writePktSize::3                    0                       # Write request sizes (log2)
system.mem_ctrls.writePktSize::4                    0                       # Write request sizes (log2)
system.mem_ctrls.writePktSize::5                    0                       # Write request sizes (log2)
system.mem_ctrls.writePktSize::6               111015                       # Write request sizes (log2)
system.mem_ctrls.rdQLenPdf::0                  139213                       # What read queue length does an incoming req see
system.mem_ctrls.rdQLenPdf::1                   59774                       # What read queue length does an incoming req see
system.mem_ctrls.rdQLenPdf::2                    2415                       # What read queue length does an incoming req see
system.mem_ctrls.rdQLenPdf::3                     351                       # What read queue length does an incoming req see
system.mem_ctrls.rdQLenPdf::4                       1                       # What read queue length does an incoming req see
system.mem_ctrls.rdQLenPdf::5                       0                       # What read queue length does an incoming req see
system.mem_ctrls.rdQLenPdf::6                       0                       # What read queue length does an incoming req see
system.mem_ctrls.rdQLenPdf::7                       0                       # What read queue length does an incoming req see
[...]
system.mem_ctrls.dram.bw_write::.writebacks     86397558                       # Write bandwidth from this memory (bytes/s)
system.mem_ctrls.dram.bw_write::total        86397558                       # Write bandwidth from this memory (bytes/s)
system.mem_ctrls.dram.bw_total::.writebacks     86397558                       # Total bandwidth to/from this memory (bytes/s)
system.mem_ctrls.dram.bw_total::.cpu.inst       511311                       # Total bandwidth to/from this memory (bytes/s)
system.mem_ctrls.dram.bw_total::.cpu.data    156528109                       # Total bandwidth to/from this memory (bytes/s)
system.mem_ctrls.dram.bw_total::total       243436977                       # Total bandwidth to/from this memory (bytes/s)
system.mem_ctrls.dram.readBursts               201754                       # Number of DRAM read bursts
system.mem_ctrls.dram.writeBursts              110999                       # Number of DRAM write bursts
system.mem_ctrls.dram.perBankRdBursts::0        12891                       # Per bank write bursts
system.mem_ctrls.dram.perBankRdBursts::1        12867                       # Per bank write bursts
system.mem_ctrls.dram.perBankRdBursts::2        12782                       # Per bank write bursts
system.mem_ctrls.dram.perBankRdBursts::3        12531                       # Per bank write bursts
system.mem_ctrls.dram.perBankRdBursts::4        12593                       # Per bank write bursts
system.mem_ctrls.dram.perBankRdBursts::5        12354                       # Per bank write bursts
system.mem_ctrls.dram.perBankRdBursts::6        12586                       # Per bank write bursts
system.mem_ctrls.dram.perBankRdBursts::7        12369                       # Per bank write bursts
system.mem_ctrls.dram.perBankRdBursts::8        12460                       # Per bank write bursts
system.mem_ctrls.dram.perBankRdBursts::9        12125                       # Per bank write bursts
system.mem_ctrls.dram.perBankRdBursts::10        12588                       # Per bank write bursts
system.mem_ctrls.dram.perBankRdBursts::11        12634                       # Per bank write bursts
system.mem_ctrls.dram.perBankRdBursts::12        12773                       # Per bank write bursts
system.mem_ctrls.dram.perBankRdBursts::13        12737                       # Per bank write bursts
system.mem_ctrls.dram.perBankRdBursts::14        12790                       # Per bank write bursts
system.mem_ctrls.dram.perBankRdBursts::15        12674                       # Per bank write bursts
system.mem_ctrls.dram.perBankWrBursts::0         7049                       # Per bank write bursts
system.mem_ctrls.dram.perBankWrBursts::1         7146                       # Per bank write bursts
system.mem_ctrls.dram.perBankWrBursts::2         7055                       # Per bank write bursts
system.mem_ctrls.dram.perBankWrBursts::3         6941                       # Per bank write bursts
system.mem_ctrls.dram.perBankWrBursts::4         7009                       # Per bank write bursts
system.mem_ctrls.dram.perBankWrBursts::5         6935                       # Per bank write bursts
system.mem_ctrls.dram.perBankWrBursts::6         7117                       # Per bank write bursts
system.mem_ctrls.dram.perBankWrBursts::7         6841                       # Per bank write bursts
system.mem_ctrls.dram.perBankWrBursts::8         6787                       # Per bank write bursts
system.mem_ctrls.dram.perBankWrBursts::9         6488                       # Per bank write bursts
system.mem_ctrls.dram.perBankWrBursts::10         6879                       # Per bank write bursts
system.mem_ctrls.dram.perBankWrBursts::11         6910                       # Per bank write bursts
system.mem_ctrls.dram.perBankWrBursts::12         6990                       # Per bank write bursts
system.mem_ctrls.dram.perBankWrBursts::13         6930                       # Per bank write bursts
system.mem_ctrls.dram.perBankWrBursts::14         7000                       # Per bank write bursts
system.mem_ctrls.dram.perBankWrBursts::15         6922                       # Per bank write bursts
system.mem_ctrls.dram.totQLat              2911373750                       # Total ticks spent queuing
system.mem_ctrls.dram.totBusLat            1008770000                       # Total ticks spent in databus transfers
system.mem_ctrls.dram.totMemAccLat         6694261250                       # Total ticks spent from burst creation until serviced by the DRAM
system.mem_ctrls.dram.avgQLat                14430.31                       # Average queueing delay per DRAM burst
system.mem_ctrls.dram.avgBusLat               5000.00                       # Average bus latency per DRAM burst
system.mem_ctrls.dram.avgMemAccLat           33180.31                       # Average memory access latency per DRAM burst
system.mem_ctrls.dram.readRowHits              138927                       # Number of row buffer hits during reads
system.mem_ctrls.dram.writeRowHits              70042                       # Number of row buffer hits during writes
system.mem_ctrls.dram.readRowHitRate            68.86                       # Row buffer hit rate for reads
system.mem_ctrls.dram.writeRowHitRate           63.10                       # Row buffer hit rate for writes
system.mem_ctrls.dram.bytesPerActivate::samples       103784                       # Bytes accessed per row activation
system.mem_ctrls.dram.bytesPerActivate::mean   192.863948                       # Bytes accessed per row activation
system.mem_ctrls.dram.bytesPerActivate::gmean   112.396269                       # Bytes accessed per row activation
system.mem_ctrls.dram.bytesPerActivate::stdev   256.912288                       # Bytes accessed per row activation
system.mem_ctrls.dram.bytesPerActivate::0-127        68107     65.62%     65.62% # Bytes accessed per row activation
system.mem_ctrls.dram.bytesPerActivate::128-255        14360     13.84%     79.46% # Bytes accessed per row activation
system.mem_ctrls.dram.bytesPerActivate::256-383         2434      2.35%     81.81% # Bytes accessed per row activation
system.mem_ctrls.dram.bytesPerActivate::384-511         1663      1.60%     83.41% # Bytes accessed per row activation
system.mem_ctrls.dram.bytesPerActivate::512-639         9164      8.83%     92.24% # Bytes accessed per row activation
system.mem_ctrls.dram.bytesPerActivate::640-767         1566      1.51%     93.75% # Bytes accessed per row activation
system.mem_ctrls.dram.bytesPerActivate::768-895          481      0.46%     94.21% # Bytes accessed per row activation
system.mem_ctrls.dram.bytesPerActivate::896-1023          361      0.35%     94.56% # Bytes accessed per row activation
system.mem_ctrls.dram.bytesPerActivate::1024-1151         5648      5.44%    100.00% # Bytes accessed per row activation
system.mem_ctrls.dram.bytesPerActivate::total       103784                       # Bytes accessed per row activation
system.mem_ctrls.dram.bytesRead              12912256                       # Total number of bytes read from DRAM
system.mem_ctrls.dram.bytesWritten            7103936                       # Total number of bytes written to DRAM
system.mem_ctrls.dram.avgRdBW              157.015294                       # Average DRAM read bandwidth in MiBytes/s
system.mem_ctrls.dram.avgWrBW               86.385106                       # Average DRAM write bandwidth in MiBytes/s
system.mem_ctrls.dram.peakBW                 12800.00                       # Theoretical peak bandwidth in MiByte/s
system.mem_ctrls.dram.busUtil                    1.90                       # Data bus utilization in percentage
system.mem_ctrls.dram.busUtilRead                1.23                       # Data bus utilization in percentage for reads
system.mem_ctrls.dram.busUtilWrite               0.67                       # Data bus utilization in percentage for writes
system.mem_ctrls.dram.pageHitRate               66.82                       # Row buffer hit rate, read and write combined
system.mem_ctrls.dram.power_state.pwrStateResidencyTicks::UNDEFINED  82235658000                       # Cumulative time (in ticks) in various power states
system.mem_ctrls.dram.rank0.actEnergy       373414860                       # Energy for activate commands per rank (pJ)
system.mem_ctrls.dram.rank0.preEnergy       198474705                       # Energy for precharge commands per rank (pJ)
system.mem_ctrls.dram.rank0.readEnergy      720947220                       # Energy for read commands per rank (pJ)
system.mem_ctrls.dram.rank0.writeEnergy     292805460                       # Energy for write commands per rank (pJ)
system.mem_ctrls.dram.rank0.refreshEnergy 6491213040.000001                       # Energy for refresh commands per rank (pJ)
system.mem_ctrls.dram.rank0.actBackEnergy  21325933830                       # Energy for active background per rank (pJ)
system.mem_ctrls.dram.rank0.preBackEnergy  13619811840                       # Energy for precharge background per rank (pJ)
system.mem_ctrls.dram.rank0.actPowerDownEnergy            0                       # Energy for active power-down per rank (pJ)
system.mem_ctrls.dram.rank0.prePowerDownEnergy            0                       # Energy for precharge power-down per rank (pJ)
system.mem_ctrls.dram.rank0.selfRefreshEnergy            0                       # Energy for self refresh per rank (pJ)
system.mem_ctrls.dram.rank0.totalEnergy   43022600955                       # Total energy per rank (pJ)
system.mem_ctrls.dram.rank0.averagePower   523.162360                       # Core power per rank (mW)
system.mem_ctrls.dram.rank0.totalIdleTime            0                       # Total Idle time Per DRAM Rank
system.mem_ctrls.dram.rank0.pwrStateTime::IDLE  35189799250                       # Time in different power states
system.mem_ctrls.dram.rank0.pwrStateTime::REF   2745860000                       # Time in different power states
system.mem_ctrls.dram.rank0.pwrStateTime::SREF            0                       # Time in different power states
system.mem_ctrls.dram.rank0.pwrStateTime::PRE_PDN            0                       # Time in different power states
system.mem_ctrls.dram.rank0.pwrStateTime::ACT  44299998750                       # Time in different power states
system.mem_ctrls.dram.rank0.pwrStateTime::ACT_PDN            0                       # Time in different power states
system.mem_ctrls.dram.rank1.actEnergy       367602900                       # Energy for activate commands per rank (pJ)
system.mem_ctrls.dram.rank1.preEnergy       195385575                       # Energy for precharge commands per rank (pJ)
system.mem_ctrls.dram.rank1.readEnergy      719576340                       # Energy for read commands per rank (pJ)
system.mem_ctrls.dram.rank1.writeEnergy     286609320                       # Energy for write commands per rank (pJ)
system.mem_ctrls.dram.rank1.refreshEnergy 6491213040.000001                       # Energy for refresh commands per rank (pJ)
system.mem_ctrls.dram.rank1.actBackEnergy  20982177660                       # Energy for active background per rank (pJ)
system.mem_ctrls.dram.rank1.preBackEnergy  13909290720                       # Energy for precharge background per rank (pJ)
system.mem_ctrls.dram.rank1.actPowerDownEnergy            0                       # Energy for active power-down per rank (pJ)
system.mem_ctrls.dram.rank1.prePowerDownEnergy            0                       # Energy for precharge power-down per rank (pJ)
system.mem_ctrls.dram.rank1.selfRefreshEnergy            0                       # Energy for self refresh per rank (pJ)
system.mem_ctrls.dram.rank1.totalEnergy   42951855555                       # Total energy per rank (pJ)
system.mem_ctrls.dram.rank1.averagePower   522.302084                       # Core power per rank (mW)
system.mem_ctrls.dram.rank1.totalIdleTime            0                       # Total Idle time Per DRAM Rank
system.mem_ctrls.dram.rank1.pwrStateTime::IDLE  35944938500                       # Time in different power states
system.mem_ctrls.dram.rank1.pwrStateTime::REF   2745860000                       # Time in different power states
system.mem_ctrls.dram.rank1.pwrStateTime::SREF            0                       # Time in different power states
system.mem_ctrls.dram.rank1.pwrStateTime::PRE_PDN            0                       # Time in different power states
system.mem_ctrls.dram.rank1.pwrStateTime::ACT  43544859500                       # Time in different power states
system.mem_ctrls.dram.rank1.pwrStateTime::ACT_PDN            0                       # Time in different power states
system.mem_ctrls.power_state.pwrStateResidencyTicks::UNDEFINED  82235658000                       # Cumulative time (in ticks) in various power states
system.membus.trans_dist::ReadResp              65702                       # Transaction distribution
system.membus.trans_dist::WritebackDirty       111015                       # Transaction distribution
system.membus.trans_dist::CleanEvict            57529                       # Transaction distribution
system.membus.trans_dist::ReadExReq            136083                       # Transaction distribution
system.membus.trans_dist::ReadExResp           136083                       # Transaction distribution
system.membus.trans_dist::ReadSharedReq         65702                       # Transaction distribution
system.membus.pkt_count_system.l2.mem_side_port::system.mem_ctrls.port       572114                       # Packet count per connected requestor and responder (bytes)
system.membus.pkt_count::total                 572114                       # Packet count per connected requestor and responder (bytes)
system.membus.pkt_size_system.l2.mem_side_port::system.mem_ctrls.port     20019200                       # Cumulative packet size per connected requestor and responder (bytes)
system.membus.pkt_size::total                20019200                       # Cumulative packet size per connected requestor and responder (bytes)
system.membus.snoops                                0                       # Total snoops (count)
system.membus.snoopTraffic                          0                       # Total snoop traffic (bytes)
system.membus.snoop_fanout::samples            201785                       # Request fanout histogram
system.membus.snoop_fanout::mean                    0                       # Request fanout histogram
system.membus.snoop_fanout::stdev                   0                       # Request fanout histogram
system.membus.snoop_fanout::underflows              0      0.00%      0.00% # Request fanout histogram
system.membus.snoop_fanout::0                  201785    100.00%    100.00% # Request fanout histogram
system.membus.snoop_fanout::1                       0      0.00%    100.00% # Request fanout histogram
system.membus.snoop_fanout::overflows               0      0.00%    100.00% # Request fanout histogram
system.membus.snoop_fanout::min_value               0                       # Request fanout histogram
system.membus.snoop_fanout::max_value               0                       # Request fanout histogram
system.membus.snoop_fanout::total              201785                       # Request fanout histogram
system.membus.power_state.pwrStateResidencyTicks::UNDEFINED  82235658000                       # Cumulative time (in ticks) in various power states
system.membus.reqLayer0.occupancy           852072500                       # Layer occupancy (ticks)
system.membus.reqLayer0.utilization               1.0                       # Layer utilization (%)
system.membus.respLayer1.occupancy         1086591750                       # Layer occupancy (ticks)
system.membus.respLayer1.utilization              1.3                       # Layer utilization (%)
system.tol2bus.trans_dist::ReadResp            283981                       # Transaction distribution
system.tol2bus.trans_dist::WritebackDirty       561569                       # Transaction distribution
system.tol2bus.trans_dist::WritebackClean          128                       # Transaction distribution
system.tol2bus.trans_dist::CleanEvict          132234                       # Transaction distribution
system.tol2bus.trans_dist::ReadExReq           243498                       # Transaction distribution
system.tol2bus.trans_dist::ReadExResp          243498                       # Transaction distribution
system.tol2bus.trans_dist::ReadCleanReq           700                       # Transaction distribution
system.tol2bus.trans_dist::ReadSharedReq       283281                       # Transaction distribution
system.tol2bus.pkt_count_system.cpu.icache.mem_side_port::system.l2.cpu_side_port         1528                       # Packet count per connected requestor and responder (bytes)
system.tol2bus.pkt_count_system.cpu.dcache.mem_side_port::system.l2.cpu_side_port      1578289                       # Packet count per connected requestor and responder (bytes)
system.tol2bus.pkt_count::total               1579817                       # Packet count per connected requestor and responder (bytes)
system.tol2bus.pkt_size_system.cpu.icache.mem_side_port::system.l2.cpu_side_port        52992                       # Cumulative packet size per connected requestor and responder (bytes)
system.tol2bus.pkt_size_system.cpu.dcache.mem_side_port::system.l2.cpu_side_port     62549312                       # Cumulative packet size per connected requestor and responder (bytes)
system.tol2bus.pkt_size::total               62602304                       # Cumulative packet size per connected requestor and responder (bytes)
system.tol2bus.snoops                          169072                       # Total snoops (count)
system.tol2bus.snoopTraffic                   7104960                       # Total snoop traffic (bytes)
system.tol2bus.snoop_fanout::samples           696551                       # Request fanout histogram
system.tol2bus.snoop_fanout::mean            0.000853                       # Request fanout histogram
system.tol2bus.snoop_fanout::stdev           0.029190                       # Request fanout histogram
system.tol2bus.snoop_fanout::underflows             0      0.00%      0.00% # Request fanout histogram
system.tol2bus.snoop_fanout::0                 695957     99.91%     99.91% # Request fanout histogram
system.tol2bus.snoop_fanout::1                    594      0.09%    100.00% # Request fanout histogram
system.tol2bus.snoop_fanout::2                      0      0.00%    100.00% # Request fanout histogram
system.tol2bus.snoop_fanout::overflows              0      0.00%    100.00% # Request fanout histogram
system.tol2bus.snoop_fanout::min_value              0                       # Request fanout histogram
system.tol2bus.snoop_fanout::max_value              1                       # Request fanout histogram
system.tol2bus.snoop_fanout::total             696551                       # Request fanout histogram
system.tol2bus.power_state.pwrStateResidencyTicks::UNDEFINED  82235658000                       # Cumulative time (in ticks) in various power states
system.tol2bus.reqLayer0.occupancy          976851000                       # Layer occupancy (ticks)
system.tol2bus.reqLayer0.utilization              1.2                       # Layer utilization (%)
system.tol2bus.respLayer0.occupancy           1050000                       # Layer occupancy (ticks)
system.tol2bus.respLayer0.utilization             0.0                       # Layer utilization (%)
system.tol2bus.respLayer1.occupancy         790171494                       # Layer occupancy (ticks)
system.tol2bus.respLayer1.utilization             1.0                       # Layer utilization (%)
system.voltage_domain.voltage                       1                       # Voltage in Volts

---------- End Simulation Statistics   ----------
