
---------- Begin Simulation Statistics ----------
final_tick                                73147591000                       # Number of ticks from beginning of simulation (restored from checkpoints and never reset)
host_inst_rate                                 363329                       # Simulator instruction rate (inst/s)
host_mem_usage                                 676516                       # Number of bytes of host memory used
host_op_rate                                   424465                       # Simulator op (including micro ops) rate (op/s)
host_seconds                                   275.23                       # Real time elapsed on the host
host_tick_rate                              265766609                       # Simulator tick rate (ticks/s)
sim_freq                                 1000000000000                       # Frequency of simulated ticks
sim_insts                                   100000000                       # Number of instructions simulated
sim_ops                                     116826593                       # Number of ops (including micro ops) simulated
sim_seconds                                  0.073148                       # Number of seconds simulated
sim_ticks                                 73147591000                       # Number of ticks simulated
system.cpu.committedInsts                   100000000                       # Number of instructions committed
system.cpu.committedOps                     116826593                       # Number of ops (including micro ops) committed
system.cpu.cpi                               1.462952                       # CPI: cycles per instruction
system.cpu.discardedOps                        503231                       # Number of ops (including micro ops) which were discarded before commit
system.cpu.idleCycles                        10001162                       # Total number of cycles that the object has spent stopped
system.cpu.ipc                               0.683550                       # IPC: instructions per cycle
system.cpu.numCycles                        146295182                       # number of cpu cycles simulated
system.cpu.numFetchSuspends                         0                       # Number of times Execute suspended instruction fetching
system.cpu.numWorkItemsCompleted                    0                       # number of work items this cpu completed
system.cpu.numWorkItemsStarted                      0                       # number of work items this cpu started
system.cpu.op_class_0::No_OpClass                   0      0.00%      0.00% # Class of committed instruction
system.cpu.op_class_0::IntAlu                65231396     55.84%     55.84% # Class of committed instruction
system.cpu.op_class_0::IntMult                 602374      0.52%     56.35% # Class of committed instruction
system.cpu.op_class_0::IntDiv                       0      0.00%     56.35% # Class of committed instruction
system.cpu.op_class_0::FloatAdd                     0      0.00%     56.35% # Class of committed instruction
system.cpu.op_class_0::FloatCmp                     0      0.00%     56.35% # Class of committed instruction
system.cpu.op_class_0::FloatCvt                     0      0.00%     56.35% # Class of committed instruction
system.cpu.op_class_0::FloatMult                    0      0.00%     56.35% # Class of committed instruction
system.cpu.op_class_0::FloatMultAcc                 0      0.00%     56.35% # Class of committed instruction
system.cpu.op_class_0::FloatDiv                     0      0.00%     56.35% # Class of committed instruction
system.cpu.op_class_0::FloatMisc                    0      0.00%     56.35% # Class of committed instruction
system.cpu.op_class_0::FloatSqrt                    0      0.00%     56.35% # Class of committed instruction
system.cpu.op_class_0::SimdAdd                    380      0.00%     56.35% # Class of committed instruction
system.cpu.op_class_0::SimdAddAcc                   0      0.00%     56.35% # Class of committed instruction
system.cpu.op_class_0::SimdAlu                    470      0.00%     56.35% # Class of committed instruction
system.cpu.op_class_0::SimdCmp                    382      0.00%     56.35% # Class of committed instruction
system.cpu.op_class_0::SimdCvt                      0      0.00%     56.35% # Class of committed instruction
system.cpu.op_class_0::SimdMisc                    53      0.00%     56.35% # Class of committed instruction
system.cpu.op_class_0::SimdMult                     0      0.00%     56.35% # Class of committed instruction
system.cpu.op_class_0::SimdMultAcc                  0      0.00%     56.35% # Class of committed instruction
system.cpu.op_class_0::SimdShift                    0      0.00%     56.35% # Class of committed instruction
system.cpu.op_class_0::SimdShiftAcc                 0      0.00%     56.35% # Class of committed instruction
system.cpu.op_class_0::SimdDiv                      0      0.00%     56.35% # Class of committed instruction
system.cpu.op_class_0::SimdSqrt                     0      0.00%     56.35% # Class of committed instruction
system.cpu.op_class_0::SimdFloatAdd            783705      0.67%     57.02% # Class of committed instruction
system.cpu.op_class_0::SimdFloatAlu                 0      0.00%     57.02% # Class of committed instruction
system.cpu.op_class_0::SimdFloatCmp            769156      0.66%     57.68% # Class of committed instruction
system.cpu.op_class_0::SimdFloatCvt            311548      0.27%     57.95% # Class of committed instruction
system.cpu.op_class_0::SimdFloatDiv            152211      0.13%     58.08% # Class of committed instruction
system.cpu.op_class_0::SimdFloatMisc           950762      0.81%     58.89% # Class of committed instruction
system.cpu.op_class_0::SimdFloatMult            86008      0.07%     58.97% # Class of committed instruction
system.cpu.op_class_0::SimdFloatMultAcc         12802      0.01%     58.98% # Class of committed instruction
system.cpu.op_class_0::SimdFloatSqrt                0      0.00%     58.98% # Class of committed instruction
system.cpu.op_class_0::SimdReduceAdd                0      0.00%     58.98% # Class of committed instruction
system.cpu.op_class_0::SimdReduceAlu                0      0.00%     58.98% # Class of committed instruction
system.cpu.op_class_0::SimdReduceCmp                0      0.00%     58.98% # Class of committed instruction
system.cpu.op_class_0::SimdFloatReduceAdd            0      0.00%     58.98% # Class of committed instruction
system.cpu.op_class_0::SimdFloatReduceCmp            0      0.00%     58.98% # Class of committed instruction
system.cpu.op_class_0::SimdAes                      0      0.00%     58.98% # Class of committed instruction
system.cpu.op_class_0::SimdAesMix                   0      0.00%     58.98% # Class of committed instruction
system.cpu.op_class_0::SimdSha1Hash                 0      0.00%     58.98% # Class of committed instruction
system.cpu.op_class_0::SimdSha1Hash2                0      0.00%     58.98% # Class of committed instruction
system.cpu.op_class_0::SimdSha256Hash               0      0.00%     58.98% # Class of committed instruction
system.cpu.op_class_0::SimdSha256Hash2              0      0.00%     58.98% # Class of committed instruction
system.cpu.op_class_0::SimdShaSigma2                0      0.00%     58.98% # Class of committed instruction
system.cpu.op_class_0::SimdShaSigma3                0      0.00%     58.98% # Class of committed instruction
system.cpu.op_class_0::SimdPredAlu                  0      0.00%     58.98% # Class of committed instruction
system.cpu.op_class_0::MemRead               30319972     25.95%     84.93% # Class of committed instruction
system.cpu.op_class_0::MemWrite              17605374     15.07%    100.00% # Class of committed instruction
system.cpu.op_class_0::FloatMemRead                 0      0.00%    100.00% # Class of committed instruction
system.cpu.op_class_0::FloatMemWrite                0      0.00%    100.00% # Class of committed instruction
system.cpu.op_class_0::IprAccess                    0      0.00%    100.00% # Class of committed instruction
system.cpu.op_class_0::InstPrefetch                 0      0.00%    100.00% # Class of committed instruction
system.cpu.op_class_0::total                116826593                       # Class of committed instruction
system.cpu.tickCycles                       136294020                       # Number of cycles that the object actually ticked
system.cpu.workload.numSyscalls                    33                       # Number of system calls
system.membus.snoop_filter.hit_multi_requests            0                       # Number of requests hitting in the snoop filter with multiple (>1) holders of the requested data.
system.membus.snoop_filter.hit_multi_snoops            0                       # Number of snoops hitting in the snoop filter with multiple (>1) holders of the requested data.
system.membus.snoop_filter.hit_single_requests            0                       # Number of requests hitting in the snoop filter with a single holder of the requested data.
system.membus.snoop_filter.hit_single_snoops            0                       # Number of snoops hitting in the snoop filter with a single holder of the requested data.
system.membus.snoop_filter.tot_requests         10658                       # Total number of requests made to the snoop filter.
system.membus.snoop_filter.tot_snoops               0                       # Total number of snoops made to the snoop filter.
system.tol2bus.snoop_filter.hit_multi_requests         2731                       # Number of requests hitting in the snoop filter with multiple (>1) holders of the requested data.
system.tol2bus.snoop_filter.hit_multi_snoops            0                       # Number of snoops hitting in the snoop filter with multiple (>1) holders of the requested data.
system.tol2bus.snoop_filter.hit_single_requests       449097                       # Number of requests hitting in the snoop filter with a single holder of the requested data.
system.tol2bus.snoop_filter.hit_single_snoops            0                       # Number of snoops hitting in the snoop filter with a single holder of the requested data.
system.tol2bus.snoop_filter.tot_requests       901094                       # Total number of requests made to the snoop filter.
system.tol2bus.snoop_filter.tot_snoops              0                       # Total number of snoops made to the snoop filter.
system.clk_domain.clock                          1000                       # Clock period in ticks
system.cpu.branchPred.lookups                 6102999                       # Number of BP lookups
system.cpu.branchPred.condPredicted           5265425                       # Number of conditional branches predicted
system.cpu.branchPred.condIncorrect            188551                       # Number of conditional branches incorrect
system.cpu.branchPred.BTBLookups              3812370                       # Number of BTB lookups
system.cpu.branchPred.BTBHits                 3808071                       # Number of BTB hits
system.cpu.branchPred.BTBHitPct             99.887235                       # BTB Hit Percentage
system.cpu.branchPred.RASUsed                  257253                       # Number of times the RAS was used to get a target.
system.cpu.branchPred.RASIncorrect                  1                       # Number of incorrect RAS predictions.
system.cpu.branchPred.indirectLookups          154303                       # Number of indirect predictor lookups.
system.cpu.branchPred.indirectHits                237                       # Number of indirect target hits.
system.cpu.branchPred.indirectMisses           154066                       # Number of indirect misses.
system.cpu.branchPred.indirectMispredicted          199                       # Number of mispredicted indirect branches.
system.cpu.dcache.demand_hits::.cpu.data     47200183                       # number of demand (read+write) hits
system.cpu.dcache.demand_hits::total         47200183                       # number of demand (read+write) hits
system.cpu.dcache.overall_hits::.cpu.data     47224902                       # number of overall hits
system.cpu.dcache.overall_hits::total        47224902                       # number of overall hits
system.cpu.dcache.demand_misses::.cpu.data       661819                       # number of demand (read+write) misses
system.cpu.dcache.demand_misses::total         661819                       # number of demand (read+write) misses
system.cpu.dcache.overall_misses::.cpu.data       662316                       # number of overall misses
system.cpu.dcache.overall_misses::total        662316                       # number of overall misses
system.cpu.dcache.demand_miss_latency::.cpu.data   8757369500                       # number of demand (read+write) miss cycles
system.cpu.dcache.demand_miss_latency::total   8757369500                       # number of demand (read+write) miss cycles
system.cpu.dcache.overall_miss_latency::.cpu.data   8757369500                       # number of overall miss cycles
system.cpu.dcache.overall_miss_latency::total   8757369500                       # number of overall miss cycles
system.cpu.dcache.demand_accesses::.cpu.data     47862002                       # number of demand (read+write) accesses
system.cpu.dcache.demand_accesses::total     47862002                       # number of demand (read+write) accesses
system.cpu.dcache.overall_accesses::.cpu.data     47887218                       # number of overall (read+write) accesses
system.cpu.dcache.overall_accesses::total     47887218                       # number of overall (read+write) accesses
system.cpu.dcache.demand_miss_rate::.cpu.data     0.013828                       # miss rate for demand accesses
system.cpu.dcache.demand_miss_rate::total     0.013828                       # miss rate for demand accesses
system.cpu.dcache.overall_miss_rate::.cpu.data     0.013831                       # miss rate for overall accesses
system.cpu.dcache.overall_miss_rate::total     0.013831                       # miss rate for overall accesses
system.cpu.dcache.demand_avg_miss_latency::.cpu.data 13232.272721                       # average overall miss latency
system.cpu.dcache.demand_avg_miss_latency::total 13232.272721                       # average overall miss latency
system.cpu.dcache.overall_avg_miss_latency::.cpu.data 13222.343262                       # average overall miss latency
system.cpu.dcache.overall_avg_miss_latency::total 13222.343262                       # average overall miss latency
system.cpu.dcache.blocked_cycles::no_mshrs          833                       # number of cycles access was blocked
system.cpu.dcache.blocked_cycles::no_targets            0                       # number of cycles access was blocked
system.cpu.dcache.blocked::no_mshrs                 3                       # number of cycles access was blocked
system.cpu.dcache.blocked::no_targets               0                       # number of cycles access was blocked
system.cpu.dcache.avg_blocked_cycles::no_mshrs   277.666667                       # average number of cycles each access was blocked
system.cpu.dcache.avg_blocked_cycles::no_targets          nan                       # average number of cycles each access was blocked
system.cpu.dcache.writebacks::.writebacks       426772                       # number of writebacks
system.cpu.dcache.writebacks::total            426772                       # number of writebacks
system.cpu.dcache.demand_mshr_hits::.cpu.data       227838                       # number of demand (read+write) MSHR hits
system.cpu.dcache.demand_mshr_hits::total       227838                       # number of demand (read+write) MSHR hits
system.cpu.dcache.overall_mshr_hits::.cpu.data       227838                       # number of overall MSHR hits
system.cpu.dcache.overall_mshr_hits::total       227838                       # number of overall MSHR hits
system.cpu.dcache.demand_mshr_misses::.cpu.data       433981                       # number of demand (read+write) MSHR misses
system.cpu.dcache.demand_mshr_misses::total       433981                       # number of demand (read+write) MSHR misses
system.cpu.dcache.overall_mshr_misses::.cpu.data       434477                       # number of overall MSHR misses
system.cpu.dcache.overall_mshr_misses::total       434477                       # number of overall MSHR misses
system.cpu.dcache.demand_mshr_miss_latency::.cpu.data   6038950000                       # number of demand (read+write) MSHR miss cycles
system.cpu.dcache.demand_mshr_miss_latency::total   6038950000                       # number of demand (read+write) MSHR miss cycles
system.cpu.dcache.overall_mshr_miss_latency::.cpu.data   6053414000                       # number of overall MSHR miss cycles
system.cpu.dcache.overall_mshr_miss_latency::total   6053414000                       # number of overall MSHR miss cycles
system.cpu.dcache.demand_mshr_miss_rate::.cpu.data     0.009067                       # mshr miss rate for demand accesses
system.cpu.dcache.demand_mshr_miss_rate::total     0.009067                       # mshr miss rate for demand accesses
system.cpu.dcache.overall_mshr_miss_rate::.cpu.data     0.009073                       # mshr miss rate for overall accesses
system.cpu.dcache.overall_mshr_miss_rate::total     0.009073                       # mshr miss rate for overall accesses
system.cpu.dcache.demand_avg_mshr_miss_latency::.cpu.data 13915.240529                       # average overall mshr miss latency
system.cpu.dcache.demand_avg_mshr_miss_latency::total 13915.240529                       # average overall mshr miss latency
system.cpu.dcache.overall_avg_mshr_miss_latency::.cpu.data 13932.645456                       # average overall mshr miss latency
system.cpu.dcache.overall_avg_mshr_miss_latency::total 13932.645456                       # average overall mshr miss latency
system.cpu.dcache.replacements                 432430                       # number of replacements
system.cpu.dcache.ReadReq_hits::.cpu.data     30193141                       # number of ReadReq hits
system.cpu.dcache.ReadReq_hits::total        30193141                       # number of ReadReq hits
system.cpu.dcache.ReadReq_misses::.cpu.data       194590                       # number of ReadReq misses
system.cpu.dcache.ReadReq_misses::total        194590                       # number of ReadReq misses
system.cpu.dcache.ReadReq_miss_latency::.cpu.data   2805180000                       # number of ReadReq miss cycles
system.cpu.dcache.ReadReq_miss_latency::total   2805180000                       # number of ReadReq miss cycles
system.cpu.dcache.ReadReq_accesses::.cpu.data     30387731                       # number of ReadReq accesses(hits+misses)
system.cpu.dcache.ReadReq_accesses::total     30387731                       # number of ReadReq accesses(hits+misses)
system.cpu.dcache.ReadReq_miss_rate::.cpu.data     0.006404                       # miss rate for ReadReq accesses
system.cpu.dcache.ReadReq_miss_rate::total     0.006404                       # miss rate for ReadReq accesses
system.cpu.dcache.ReadReq_avg_miss_latency::.cpu.data 14415.848708                       # average ReadReq miss latency
system.cpu.dcache.ReadReq_avg_miss_latency::total 14415.848708                       # average ReadReq miss latency
system.cpu.dcache.ReadReq_mshr_hits::.cpu.data        17885                       # number of ReadReq MSHR hits
system.cpu.dcache.ReadReq_mshr_hits::total        17885                       # number of ReadReq MSHR hits
system.cpu.dcache.ReadReq_mshr_misses::.cpu.data       176705                       # number of ReadReq MSHR misses
system.cpu.dcache.ReadReq_mshr_misses::total       176705                       # number of ReadReq MSHR misses
system.cpu.dcache.ReadReq_mshr_miss_latency::.cpu.data   2360606000                       # number of ReadReq MSHR miss cycles
system.cpu.dcache.ReadReq_mshr_miss_latency::total   2360606000                       # number of ReadReq MSHR miss cycles
system.cpu.dcache.ReadReq_mshr_miss_rate::.cpu.data     0.005815                       # mshr miss rate for ReadReq accesses
system.cpu.dcache.ReadReq_mshr_miss_rate::total     0.005815                       # mshr miss rate for ReadReq accesses
system.cpu.dcache.ReadReq_avg_mshr_miss_latency::.cpu.data 13359.022099                       # average ReadReq mshr miss latency
system.cpu.dcache.ReadReq_avg_mshr_miss_latency::total 13359.022099                       # average ReadReq mshr miss latency
system.cpu.dcache.WriteReq_hits::.cpu.data     17007042                       # number of WriteReq hits
system.cpu.dcache.WriteReq_hits::total       17007042                       # number of WriteReq hits
system.cpu.dcache.WriteReq_misses::.cpu.data       467229                       # number of WriteReq misses
system.cpu.dcache.WriteReq_misses::total       467229                       # number of WriteReq misses
system.cpu.dcache.WriteReq_miss_latency::.cpu.data   5952189500                       # number of WriteReq miss cycles
system.cpu.dcache.WriteReq_miss_latency::total   5952189500                       # number of WriteReq miss cycles
system.cpu.dcache.WriteReq_accesses::.cpu.data     17474271                       # number of WriteReq accesses(hits+misses)
system.cpu.dcache.WriteReq_accesses::total     17474271                       # number of WriteReq accesses(hits+misses)
system.cpu.dcache.WriteReq_miss_rate::.cpu.data     0.026738                       # miss rate for WriteReq accesses
system.cpu.dcache.WriteReq_miss_rate::total     0.026738                       # miss rate for WriteReq accesses
system.cpu.dcache.WriteReq_avg_miss_latency::.cpu.data 12739.340880                       # average WriteReq miss latency
system.cpu.dcache.WriteReq_avg_miss_latency::total 12739.340880                       # average WriteReq miss latency
system.cpu.dcache.WriteReq_mshr_hits::.cpu.data       209953                       # number of WriteReq MSHR hits
system.cpu.dcache.WriteReq_mshr_hits::total       209953                       # number of WriteReq MSHR hits
system.cpu.dcache.WriteReq_mshr_misses::.cpu.data       257276                       # number of WriteReq MSHR misses
system.cpu.dcache.WriteReq_mshr_misses::total       257276                       # number of WriteReq MSHR misses
system.cpu.dcache.WriteReq_mshr_miss_latency::.cpu.data   3678344000                       # number of WriteReq MSHR miss cycles
system.cpu.dcache.WriteReq_mshr_miss_latency::total   3678344000                       # number of WriteReq MSHR miss cycles
system.cpu.dcache.WriteReq_mshr_miss_rate::.cpu.data     0.014723                       # mshr miss rate for WriteReq accesses
system.cpu.dcache.WriteReq_mshr_miss_rate::total     0.014723                       # mshr miss rate for WriteReq accesses
system.cpu.dcache.WriteReq_avg_mshr_miss_latency::.cpu.data 14297.268303                       # average WriteReq mshr miss latency
system.cpu.dcache.WriteReq_avg_mshr_miss_latency::total 14297.268303                       # average WriteReq mshr miss latency
system.cpu.dcache.SoftPFReq_hits::.cpu.data        24719                       # number of SoftPFReq hits
system.cpu.dcache.SoftPFReq_hits::total         24719                       # number of SoftPFReq hits
system.cpu.dcache.SoftPFReq_misses::.cpu.data          497                       # number of SoftPFReq misses
system.cpu.dcache.SoftPFReq_misses::total          497                       # number of SoftPFReq misses
system.cpu.dcache.SoftPFReq_accesses::.cpu.data        25216                       # number of SoftPFReq accesses(hits+misses)
system.cpu.dcache.SoftPFReq_accesses::total        25216                       # number of SoftPFReq accesses(hits+misses)
system.cpu.dcache.SoftPFReq_miss_rate::.cpu.data     0.019710                       # miss rate for SoftPFReq accesses
system.cpu.dcache.SoftPFReq_miss_rate::total     0.019710                       # miss rate for SoftPFReq accesses
system.cpu.dcache.SoftPFReq_mshr_misses::.cpu.data          496                       # number of SoftPFReq MSHR misses
system.cpu.dcache.SoftPFReq_mshr_misses::total          496                       # number of SoftPFReq MSHR misses
system.cpu.dcache.SoftPFReq_mshr_miss_latency::.cpu.data     14464000                       # number of SoftPFReq MSHR miss cycles
system.cpu.dcache.SoftPFReq_mshr_miss_latency::total     14464000                       # number of SoftPFReq MSHR miss cycles
system.cpu.dcache.SoftPFReq_mshr_miss_rate::.cpu.data     0.019670                       # mshr miss rate for SoftPFReq accesses
system.cpu.dcache.SoftPFReq_mshr_miss_rate::total     0.019670                       # mshr miss rate for SoftPFReq accesses
system.cpu.dcache.SoftPFReq_avg_mshr_miss_latency::.cpu.data 29161.290323                       # average SoftPFReq mshr miss latency
system.cpu.dcache.SoftPFReq_avg_mshr_miss_latency::total 29161.290323                       # average SoftPFReq mshr miss latency
system.cpu.dcache.LoadLockedReq_hits::.cpu.data          165                       # number of LoadLockedReq hits
system.cpu.dcache.LoadLockedReq_hits::total          165                       # number of LoadLockedReq hits
system.cpu.dcache.LoadLockedReq_misses::.cpu.data            1                       # number of LoadLockedReq misses
system.cpu.dcache.LoadLockedReq_misses::total            1                       # number of LoadLockedReq misses
system.cpu.dcache.LoadLockedReq_miss_latency::.cpu.data        86000                       # number of LoadLockedReq miss cycles
system.cpu.dcache.LoadLockedReq_miss_latency::total        86000                       # number of LoadLockedReq miss cycles
system.cpu.dcache.LoadLockedReq_accesses::.cpu.data          166                       # number of LoadLockedReq accesses(hits+misses)
system.cpu.dcache.LoadLockedReq_accesses::total          166                       # number of LoadLockedReq accesses(hits+misses)
system.cpu.dcache.LoadLockedReq_miss_rate::.cpu.data     0.006024                       # miss rate for LoadLockedReq accesses
system.cpu.dcache.LoadLockedReq_miss_rate::total     0.006024                       # miss rate for LoadLockedReq accesses
system.cpu.dcache.LoadLockedReq_avg_miss_latency::.cpu.data        86000                       # average LoadLockedReq miss latency
system.cpu.dcache.LoadLockedReq_avg_miss_latency::total        86000                       # average LoadLockedReq miss latency
system.cpu.dcache.LoadLockedReq_mshr_misses::.cpu.data            1                       # number of LoadLockedReq MSHR misses
system.cpu.dcache.LoadLockedReq_mshr_misses::total            1                       # number of LoadLockedReq MSHR misses
system.cpu.dcache.LoadLockedReq_mshr_miss_latency::.cpu.data        85000                       # number of LoadLockedReq MSHR miss cycles
system.cpu.dcache.LoadLockedReq_mshr_miss_latency::total        85000                       # number of LoadLockedReq MSHR miss cycles
system.cpu.dcache.LoadLockedReq_mshr_miss_rate::.cpu.data     0.006024                       # mshr miss rate for LoadLockedReq accesses
system.cpu.dcache.LoadLockedReq_mshr_miss_rate::total     0.006024                       # mshr miss rate for LoadLockedReq accesses
system.cpu.dcache.LoadLockedReq_avg_mshr_miss_latency::.cpu.data        85000                       # average LoadLockedReq mshr miss latency
system.cpu.dcache.LoadLockedReq_avg_mshr_miss_latency::total        85000                       # average LoadLockedReq mshr miss latency
system.cpu.dcache.StoreCondReq_hits::.cpu.data          166                       # number of StoreCondReq hits
system.cpu.dcache.StoreCondReq_hits::total          166                       # number of StoreCondReq hits
system.cpu.dcache.StoreCondReq_accesses::.cpu.data          166                       # number of StoreCondReq accesses(hits+misses)
system.cpu.dcache.StoreCondReq_accesses::total          166                       # number of StoreCondReq accesses(hits+misses)
system.cpu.dcache.power_state.pwrStateResidencyTicks::UNDEFINED  73147591000                       # Cumulative time (in ticks) in various power states
system.cpu.dcache.tags.tagsinuse          2029.022007                       # Cycle average of tags in use
system.cpu.dcache.tags.total_refs            47659711                       # Total number of references to valid blocks.
system.cpu.dcache.tags.sampled_refs            434478                       # Sample count of references to valid blocks.
system.cpu.dcache.tags.avg_refs            109.694187                       # Average number of references to valid blocks.
system.cpu.dcache.tags.warmup_cycle            176500                       # Cycle when the warmup percentage was hit.
system.cpu.dcache.tags.occ_blocks::.cpu.data  2029.022007                       # Average occupied blocks per requestor
system.cpu.dcache.tags.occ_percent::.cpu.data     0.990733                       # Average percentage of cache occupancy
system.cpu.dcache.tags.occ_percent::total     0.990733                       # Average percentage of cache occupancy
system.cpu.dcache.tags.occ_task_id_blocks::1024         2048                       # Occupied blocks per task id
system.cpu.dcache.tags.age_task_id_blocks_1024::0           25                       # Occupied blocks per task id
system.cpu.dcache.tags.age_task_id_blocks_1024::1          209                       # Occupied blocks per task id
system.cpu.dcache.tags.age_task_id_blocks_1024::2          765                       # Occupied blocks per task id
system.cpu.dcache.tags.age_task_id_blocks_1024::3          754                       # Occupied blocks per task id
system.cpu.dcache.tags.age_task_id_blocks_1024::4          295                       # Occupied blocks per task id
system.cpu.dcache.tags.occ_task_id_percent::1024            1                       # Percentage of cache occupancy per task id
system.cpu.dcache.tags.tag_accesses          48322028                       # Number of tag accesses
system.cpu.dcache.tags.data_accesses         48322028                       # Number of data accesses
system.cpu.dcache.tags.power_state.pwrStateResidencyTicks::UNDEFINED  73147591000                       # Cumulative time (in ticks) in various power states
system.cpu.dtb.instHits                             0                       # ITB inst hits
system.cpu.dtb.instMisses                           0                       # ITB inst misses
system.cpu.dtb.readHits                             0                       # DTB read hits
system.cpu.dtb.readMisses                           0                       # DTB read misses
system.cpu.dtb.writeHits                            0                       # DTB write hits
system.cpu.dtb.writeMisses                          0                       # DTB write misses
system.cpu.dtb.inserts                              0                       # Number of times an entry is inserted into the TLB
system.cpu.dtb.flushTlb                             0                       # Number of times complete TLB was flushed
system.cpu.dtb.flushTlbMva                          0                       # Number of times TLB was flushed by MVA
system.cpu.dtb.flushTlbMvaAsid                      0                       # Number of times TLB was flushed by MVA & ASID
system.cpu.dtb.flushTlbAsid                         0                       # Number of times TLB was flushed by ASID
system.cpu.dtb.flushedEntries                       0                       # Number of entries that have been flushed from TLB
system.cpu.dtb.alignFaults                          0                       # Number of TLB faults due to alignment restrictions
system.cpu.dtb.prefetchFaults                       0                       # Number of TLB faults due to prefetch
system.cpu.dtb.domainFaults                         0                       # Number of TLB faults due to domain restrictions
system.cpu.dtb.permsFaults                          0                       # Number of TLB faults due to permissions restrictions
system.cpu.dtb.readAccesses                         0                       # DTB read accesses
system.cpu.dtb.writeAccesses                        0                       # DTB write accesses
system.cpu.dtb.instAccesses                         0                       # ITB inst accesses
system.cpu.dtb.hits                                 0                       # Total TLB (inst and data) hits
system.cpu.dtb.misses                               0                       # Total TLB (inst and data) misses
system.cpu.dtb.accesses                             0                       # Total TLB (inst and data) accesses
system.cpu.dtb.stage2_mmu.stage2_tlb.instHits            0                       # ITB inst hits
system.cpu.dtb.stage2_mmu.stage2_tlb.instMisses            0                       # ITB inst misses
system.cpu.dtb.stage2_mmu.stage2_tlb.readHits            0                       # DTB read hits
system.cpu.dtb.stage2_mmu.stage2_tlb.readMisses            0                       # DTB read misses
system.cpu.dtb.stage2_mmu.stage2_tlb.writeHits            0                       # DTB write hits
system.cpu.dtb.stage2_mmu.stage2_tlb.writeMisses            0                       # DTB write misses
system.cpu.dtb.stage2_mmu.stage2_tlb.inserts            0                       # Number of times an entry is inserted into the TLB
system.cpu.dtb.stage2_mmu.stage2_tlb.flushTlb            0                       # Number of times complete TLB was flushed
system.cpu.dtb.stage2_mmu.stage2_tlb.flushTlbMva            0                       # Number of times TLB was flushed by MVA
system.cpu.dtb.stage2_mmu.stage2_tlb.flushTlbMvaAsid            0                       # Number of times TLB was flushed by MVA & ASID
system.cpu.dtb.stage2_mmu.stage2_tlb.flushTlbAsid            0                       # Number of times TLB was flushed by ASID
system.cpu.dtb.stage2_mmu.stage2_tlb.flushedEntries            0                       # Number of entries that have been flushed from TLB
system.cpu.dtb.stage2_mmu.stage2_tlb.alignFaults            0                       # Number of TLB faults due to alignment restrictions
system.cpu.dtb.stage2_mmu.stage2_tlb.prefetchFaults            0                       # Number of TLB faults due to prefetch
system.cpu.dtb.stage2_mmu.stage2_tlb.domainFaults            0                       # Number of TLB faults due to domain restrictions
system.cpu.dtb.stage2_mmu.stage2_tlb.permsFaults            0                       # Number of TLB faults due to permissions restrictions
system.cpu.dtb.stage2_mmu.stage2_tlb.readAccesses            0                       # DTB read accesses
system.cpu.dtb.stage2_mmu.stage2_tlb.writeAccesses            0                       # DTB write accesses
system.cpu.dtb.stage2_mmu.stage2_tlb.instAccesses            0                       # ITB inst accesses
system.cpu.dtb.stage2_mmu.stage2_tlb.hits            0                       # Total TLB (inst and data) hits
system.cpu.dtb.stage2_mmu.stage2_tlb.misses            0                       # Total TLB (inst and data) misses
system.cpu.dtb.stage2_mmu.stage2_tlb.accesses            0                       # Total TLB (inst and data) accesses
system.cpu.dtb.stage2_mmu.stage2_tlb.walker.walks            0                       # Table walker walks requested
system.cpu.dtb.stage2_mmu.stage2_tlb.walker.requestOrigin_Requested::Data            0                       # Table walker requests started/completed, data/inst
system.cpu.dtb.stage2_mmu.stage2_tlb.walker.requestOrigin_Requested::Inst            0                       # Table walker requests started/completed, data/inst
system.cpu.dtb.stage2_mmu.stage2_tlb.walker.requestOrigin_Requested::total            0                       # Table walker requests started/completed, data/inst
system.cpu.dtb.stage2_mmu.stage2_tlb.walker.requestOrigin_Completed::Data            0                       # Table walker requests started/completed, data/inst
system.cpu.dtb.stage2_mmu.stage2_tlb.walker.requestOrigin_Completed::Inst            0                       # Table walker requests started/completed, data/inst
system.cpu.dtb.stage2_mmu.stage2_tlb.walker.requestOrigin_Completed::total            0                       # Table walker requests started/completed, data/inst
system.cpu.dtb.stage2_mmu.stage2_tlb.walker.requestOrigin::total            0                       # Table walker requests started/completed, data/inst
system.cpu.dtb.stage2_mmu.stage2_tlb.walker.power_state.pwrStateResidencyTicks::UNDEFINED  73147591000                       # Cumulative time (in ticks) in various power states
system.cpu.dtb.walker.walks                         0                       # Table walker walks requested
system.cpu.dtb.walker.requestOrigin_Requested::Data            0                       # Table walker requests started/completed, data/inst
system.cpu.dtb.walker.requestOrigin_Requested::Inst            0                       # Table walker requests started/completed, data/inst
system.cpu.dtb.walker.requestOrigin_Requested::total            0                       # Table walker requests started/completed, data/inst
system.cpu.dtb.walker.requestOrigin_Completed::Data            0                       # Table walker requests started/completed, data/inst
system.cpu.dtb.walker.requestOrigin_Completed::Inst            0                       # Table walker requests started/completed, data/inst
system.cpu.dtb.walker.requestOrigin_Completed::total            0                       # Table walker requests started/completed, data/inst
system.cpu.dtb.walker.requestOrigin::total            0                       # Table walker requests started/completed, data/inst
system.cpu.dtb.walker.power_state.pwrStateResidencyTicks::UNDEFINED  73147591000                       # Cumulative time (in ticks) in various power states
system.cpu.fetch2.intInstructions            37751244                       # Number of integer instructions successfully decoded
system.cpu.fetch2.fpInstructions                    0                       # Number of floating point instructions successfully decoded
system.cpu.fetch2.vecInstructions                   0                       # Number of SIMD instructions successfully decoded
system.cpu.fetch2.loadInstructions           17244264                       # Number of memory load instructions successfully decoded
system.cpu.fetch2.storeInstructions          14150141                       # Number of memory store instructions successfully decoded
system.cpu.fetch2.amoInstructions                   0                       # Number of memory atomic instructions successfully decoded
system.cpu.icache.demand_hits::.cpu.inst     18622652                       # number of demand (read+write) hits
system.cpu.icache.demand_hits::total         18622652                       # number of demand (read+write) hits
system.cpu.icache.overall_hits::.cpu.inst     18622652                       # number of overall hits
system.cpu.icache.overall_hits::total        18622652                       # number of overall hits
system.cpu.icache.demand_misses::.cpu.inst        17523                       # number of demand (read+write) misses
system.cpu.icache.demand_misses::total          17523                       # number of demand (read+write) misses
system.cpu.icache.overall_misses::.cpu.inst        17523                       # number of overall misses
system.cpu.icache.overall_misses::total         17523                       # number of overall misses
system.cpu.icache.demand_miss_latency::.cpu.inst    354780000                       # number of demand (read+write) miss cycles
system.cpu.icache.demand_miss_latency::total    354780000                       # number of demand (read+write) miss cycles
system.cpu.icache.overall_miss_latency::.cpu.inst    354780000                       # number of overall miss cycles
system.cpu.icache.overall_miss_latency::total    354780000                       # number of overall miss cycles
system.cpu.icache.demand_accesses::.cpu.inst     18640175                       # number of demand (read+write) accesses
system.cpu.icache.demand_accesses::total     18640175                       # number of demand (read+write) accesses
system.cpu.icache.overall_accesses::.cpu.inst     18640175                       # number of overall (read+write) accesses
system.cpu.icache.overall_accesses::total     18640175                       # number of overall (read+write) accesses
system.cpu.icache.demand_miss_rate::.cpu.inst     0.000940                       # miss rate for demand accesses
system.cpu.icache.demand_miss_rate::total     0.000940                       # miss rate for demand accesses
system.cpu.icache.overall_miss_rate::.cpu.inst     0.000940                       # miss rate for overall accesses
system.cpu.icache.overall_miss_rate::total     0.000940                       # miss rate for overall accesses
system.cpu.icache.demand_avg_miss_latency::.cpu.inst 20246.533128                       # average overall miss latency
system.cpu.icache.demand_avg_miss_latency::total 20246.533128                       # average overall miss latency
system.cpu.icache.overall_avg_miss_latency::.cpu.inst 20246.533128                       # average overall miss latency
system.cpu.icache.overall_avg_miss_latency::total 20246.533128                       # average overall miss latency
system.cpu.icache.blocked_cycles::no_mshrs            0                       # number of cycles access was blocked
system.cpu.icache.blocked_cycles::no_targets            0                       # number of cycles access was blocked
system.cpu.icache.blocked::no_mshrs                 0                       # number of cycles access was blocked
system.cpu.icache.blocked::no_targets               0                       # number of cycles access was blocked
system.cpu.icache.avg_blocked_cycles::no_mshrs          nan                       # average number of cycles each access was blocked
system.cpu.icache.avg_blocked_cycles::no_targets          nan                       # average number of cycles each access was blocked
system.cpu.icache.writebacks::.writebacks        16663                       # number of writebacks
system.cpu.icache.writebacks::total             16663                       # number of writebacks
system.cpu.icache.demand_mshr_misses::.cpu.inst        17523                       # number of demand (read+write) MSHR misses
system.cpu.icache.demand_mshr_misses::total        17523                       # number of demand (read+write) MSHR misses
system.cpu.icache.overall_mshr_misses::.cpu.inst        17523                       # number of overall MSHR misses
system.cpu.icache.overall_mshr_misses::total        17523                       # number of overall MSHR misses
system.cpu.icache.demand_mshr_miss_latency::.cpu.inst    337257000                       # number of demand (read+write) MSHR miss cycles
system.cpu.icache.demand_mshr_miss_latency::total    337257000                       # number of demand (read+write) MSHR miss cycles
system.cpu.icache.overall_mshr_miss_latency::.cpu.inst    337257000                       # number of overall MSHR miss cycles
system.cpu.icache.overall_mshr_miss_latency::total    337257000                       # number of overall MSHR miss cycles
system.cpu.icache.demand_mshr_miss_rate::.cpu.inst     0.000940                       # mshr miss rate for demand accesses
system.cpu.icache.demand_mshr_miss_rate::total     0.000940                       # mshr miss rate for demand accesses
system.cpu.icache.overall_mshr_miss_rate::.cpu.inst     0.000940                       # mshr miss rate for overall accesses
system.cpu.icache.overall_mshr_miss_rate::total     0.000940                       # mshr miss rate for overall accesses
system.cpu.icache.demand_avg_mshr_miss_latency::.cpu.inst 19246.533128                       # average overall mshr miss latency
system.cpu.icache.demand_avg_mshr_miss_latency::total 19246.533128                       # average overall mshr miss latency
system.cpu.icache.overall_avg_mshr_miss_latency::.cpu.inst 19246.533128                       # average overall mshr miss latency
system.cpu.icache.overall_avg_mshr_miss_latency::total 19246.533128                       # average overall mshr miss latency
system.cpu.icache.replacements                  16663                       # number of replacements
system.cpu.icache.ReadReq_hits::.cpu.inst     18622652                       # number of ReadReq hits
system.cpu.icache.ReadReq_hits::total        18622652                       # number of ReadReq hits
system.cpu.icache.ReadReq_misses::.cpu.inst        17523                       # number of ReadReq misses
system.cpu.icache.ReadReq_misses::total         17523                       # number of ReadReq misses
system.cpu.icache.ReadReq_miss_latency::.cpu.inst    354780000                       # number of ReadReq miss cycles
system.cpu.icache.ReadReq_miss_latency::total    354780000                       # number of ReadReq miss cycles
system.cpu.icache.ReadReq_accesses::.cpu.inst     18640175                       # number of ReadReq accesses(hits+misses)
system.cpu.icache.ReadReq_accesses::total     18640175                       # number of ReadReq accesses(hits+misses)
system.cpu.icache.ReadReq_miss_rate::.cpu.inst     0.000940                       # miss rate for ReadReq accesses
system.cpu.icache.ReadReq_miss_rate::total     0.000940                       # miss rate for ReadReq accesses
system.cpu.icache.ReadReq_avg_miss_latency::.cpu.inst 20246.533128                       # average ReadReq miss latency
system.cpu.icache.ReadReq_avg_miss_latency::total 20246.533128                       # average ReadReq miss latency
system.cpu.icache.ReadReq_mshr_misses::.cpu.inst        17523                       # number of ReadReq MSHR misses
system.cpu.icache.ReadReq_mshr_misses::total        17523                       # number of ReadReq MSHR misses
system.cpu.icache.ReadReq_mshr_miss_latency::.cpu.inst    337257000                       # number of ReadReq MSHR miss cycles
system.cpu.icache.ReadReq_mshr_miss_latency::total    337257000                       # number of ReadReq MSHR miss cycles
system.cpu.icache.ReadReq_mshr_miss_rate::.cpu.inst     0.000940                       # mshr miss rate for ReadReq accesses
system.cpu.icache.ReadReq_mshr_miss_rate::total     0.000940                       # mshr miss rate for ReadReq accesses
system.cpu.icache.ReadReq_avg_mshr_miss_latency::.cpu.inst 19246.533128                       # average ReadReq mshr miss latency
system.cpu.icache.ReadReq_avg_mshr_miss_latency::total 19246.533128                       # average ReadReq mshr miss latency
system.cpu.icache.power_state.pwrStateResidencyTicks::UNDEFINED  73147591000                       # Cumulative time (in ticks) in various power states
system.cpu.icache.tags.tagsinuse           858.813058                       # Cycle average of tags in use
system.cpu.icache.tags.total_refs            18640175                       # Total number of references to valid blocks.
system.cpu.icache.tags.sampled_refs             17523                       # Sample count of references to valid blocks.
system.cpu.icache.tags.avg_refs           1063.754779                       # Average number of references to valid blocks.
system.cpu.icache.tags.warmup_cycle             87500                       # Cycle when the warmup percentage was hit.
system.cpu.icache.tags.occ_blocks::.cpu.inst   858.813058                       # Average occupied blocks per requestor
system.cpu.icache.tags.occ_percent::.cpu.inst     0.838685                       # Average percentage of cache occupancy
system.cpu.icache.tags.occ_percent::total     0.838685                       # Average percentage of cache occupancy
system.cpu.icache.tags.occ_task_id_blocks::1024          860                       # Occupied blocks per task id
system.cpu.icache.tags.age_task_id_blocks_1024::2           13                       # Occupied blocks per task id
system.cpu.icache.tags.age_task_id_blocks_1024::3           12                       # Occupied blocks per task id
system.cpu.icache.tags.age_task_id_blocks_1024::4          835                       # Occupied blocks per task id
system.cpu.icache.tags.occ_task_id_percent::1024     0.839844                       # Percentage of cache occupancy per task id
system.cpu.icache.tags.tag_accesses          18657698                       # Number of tag accesses
system.cpu.icache.tags.data_accesses         18657698                       # Number of data accesses
system.cpu.icache.tags.power_state.pwrStateResidencyTicks::UNDEFINED  73147591000                       # Cumulative time (in ticks) in various power states
system.cpu.itb.instHits                             0                       # ITB inst hits
system.cpu.itb.instMisses                           0                       # ITB inst misses
system.cpu.itb.readHits                             0                       # DTB read hits
system.cpu.itb.readMisses                           0                       # DTB read misses
system.cpu.itb.writeHits                            0                       # DTB write hits
system.cpu.itb.writeMisses                          0                       # DTB write misses
system.cpu.itb.inserts                              0                       # Number of times an entry is inserted into the TLB
system.cpu.itb.flushTlb                             0                       # Number of times complete TLB was flushed
system.cpu.itb.flushTlbMva                          0                       # Number of times TLB was flushed by MVA
system.cpu.itb.flushTlbMvaAsid                      0                       # Number of times TLB was flushed by MVA & ASID
system.cpu.itb.flushTlbAsid                         0                       # Number of times TLB was flushed by ASID
system.cpu.itb.flushedEntries                       0                       # Number of entries that have been flushed from TLB
system.cpu.itb.alignFaults                          0                       # Number of TLB faults due to alignment restrictions
system.cpu.itb.prefetchFaults                       0                       # Number of TLB faults due to prefetch
system.cpu.itb.domainFaults                         0                       # Number of TLB faults due to domain restrictions
system.cpu.itb.permsFaults                          0                       # Number of TLB faults due to permissions restrictions
system.cpu.itb.readAccesses                         0                       # DTB read accesses
system.cpu.itb.writeAccesses                        0                       # DTB write accesses
system.cpu.itb.instAccesses                         0                       # ITB inst accesses
system.cpu.itb.hits                                 0                       # Total TLB (inst and data) hits
system.cpu.itb.misses                               0                       # Total TLB (inst and data) misses
system.cpu.itb.accesses                             0                       # Total TLB (inst and data) accesses
system.cpu.itb.stage2_mmu.stage2_tlb.instHits            0                       # ITB inst hits
system.cpu.itb.stage2_mmu.stage2_tlb.instMisses            0                       # ITB inst misses
system.cpu.itb.stage2_mmu.stage2_tlb.readHits            0                       # DTB read hits
system.cpu.itb.stage2_mmu.stage2_tlb.readMisses            0                       # DTB read misses
system.cpu.itb.stage2_mmu.stage2_tlb.writeHits            0                       # DTB write hits
system.cpu.itb.stage2_mmu.stage2_tlb.writeMisses            0                       # DTB write misses
system.cpu.itb.stage2_mmu.stage2_tlb.inserts            0                       # Number of times an entry is inserted into the TLB
system.cpu.itb.stage2_mmu.stage2_tlb.flushTlb            0                       # Number of times complete TLB was flushed
system.cpu.itb.stage2_mmu.stage2_tlb.flushTlbMva            0                       # Number of times TLB was flushed by MVA
system.cpu.itb.stage2_mmu.stage2_tlb.flushTlbMvaAsid            0                       # Number of times TLB was flushed by MVA & ASID
system.cpu.itb.stage2_mmu.stage2_tlb.flushTlbAsid            0                       # Number of times TLB was flushed by ASID
system.cpu.itb.stage2_mmu.stage2_tlb.flushedEntries            0                       # Number of entries that have been flushed from TLB
system.cpu.itb.stage2_mmu.stage2_tlb.alignFaults            0                       # Number of TLB faults due to alignment restrictions
system.cpu.itb.stage2_mmu.stage2_tlb.prefetchFaults            0                       # Number of TLB faults due to prefetch
system.cpu.itb.stage2_mmu.stage2_tlb.domainFaults            0                       # Number of TLB faults due to domain restrictions
system.cpu.itb.stage2_mmu.stage2_tlb.permsFaults            0                       # Number of TLB faults due to permissions restrictions
system.cpu.itb.stage2_mmu.stage2_tlb.readAccesses            0                       # DTB read accesses
system.cpu.itb.stage2_mmu.stage2_tlb.writeAccesses            0                       # DTB write accesses
system.cpu.itb.stage2_mmu.stage2_tlb.instAccesses            0                       # ITB inst accesses
system.cpu.itb.stage2_mmu.stage2_tlb.hits            0                       # Total TLB (inst and data) hits
system.cpu.itb.stage2_mmu.stage2_tlb.misses            0                       # Total TLB (inst and data) misses
system.cpu.itb.stage2_mmu.stage2_tlb.accesses            0                       # Total TLB (inst and data) accesses
system.cpu.itb.stage2_mmu.stage2_tlb.walker.walks            0                       # Table walker walks requested
system.cpu.itb.stage2_mmu.stage2_tlb.walker.requestOrigin_Requested::Data            0                       # Table walker requests started/completed, data/inst
system.cpu.itb.stage2_mmu.stage2_tlb.walker.requestOrigin_Requested::Inst            0                       # Table walker requests started/completed, data/inst
system.cpu.itb.stage2_mmu.stage2_tlb.walker.requestOrigin_Requested::total            0                       # Table walker requests started/completed, data/inst
system.cpu.itb.stage2_mmu.stage2_tlb.walker.requestOrigin_Completed::Data            0                       # Table walker requests started/completed, data/inst
system.cpu.itb.stage2_mmu.stage2_tlb.walker.requestOrigin_Completed::Inst            0                       # Table walker requests started/completed, data/inst
system.cpu.itb.stage2_mmu.stage2_tlb.walker.requestOrigin_Completed::total            0                       # Table walker requests started/completed, data/inst
system.cpu.itb.stage2_mmu.stage2_tlb.walker.requestOrigin::total            0                       # Table walker requests started/completed, data/inst
system.cpu.itb.stage2_mmu.stage2_tlb.walker.power_state.pwrStateResidencyTicks::UNDEFINED  73147591000                       # Cumulative time (in ticks) in various power states
system.cpu.itb.walker.walks                         0                       # Table walker walks requested
system.cpu.itb.walker.requestOrigin_Requested::Data            0                       # Table walker requests started/completed, data/inst
system.cpu.itb.walker.requestOrigin_Requested::Inst            0                       # Table walker requests started/completed, data/inst
system.cpu.itb.walker.requestOrigin_Requested::total            0                       # Table walker requests started/completed, data/inst
system.cpu.itb.walker.requestOrigin_Completed::Data            0                       # Table walker requests started/completed, data/inst
system.cpu.itb.walker.requestOrigin_Completed::Inst            0                       # Table walker requests started/completed, data/inst
system.cpu.itb.walker.requestOrigin_Completed::total            0                       # Table walker requests started/completed, data/inst
system.cpu.itb.walker.requestOrigin::total            0                       # Table walker requests started/completed, data/inst
system.cpu.itb.walker.power_state.pwrStateResidencyTicks::UNDEFINED  73147591000                       # Cumulative time (in ticks) in various power states
system.cpu.power_state.pwrStateResidencyTicks::ON  73147591000                       # Cumulative time (in ticks) in various power states
system.cpu.thread0.numInsts                 100000000                       # Number of Instructions committed
system.cpu.thread0.numOps                   116826593                       # Number of Ops committed
system.cpu.thread0.numMemRefs                       0                       # Number of Memory References
system.cpu_clk_domain.clock                       500                       # Clock period in ticks
system.cpu_voltage_domain.voltage                   1                       # Voltage in Volts
system.l2.demand_hits::.cpu.inst                15577                       # number of demand (read+write) hits
system.l2.demand_hits::.cpu.data               425754                       # number of demand (read+write) hits
system.l2.demand_hits::total                   441331                       # number of demand (read+write) hits
system.l2.overall_hits::.cpu.inst               15577                       # number of overall hits
system.l2.overall_hits::.cpu.data              425754                       # number of overall hits
system.l2.overall_hits::total                  441331                       # number of overall hits
system.l2.demand_misses::.cpu.inst               1946                       # number of demand (read+write) misses
system.l2.demand_misses::.cpu.data               8724                       # number of demand (read+write) misses
system.l2.demand_misses::total                  10670                       # number of demand (read+write) misses
system.l2.overall_misses::.cpu.inst              1946                       # number of overall misses
system.l2.overall_misses::.cpu.data              8724                       # number of overall misses
system.l2.overall_misses::total                 10670                       # number of overall misses
system.l2.demand_miss_latency::.cpu.inst    146559000                       # number of demand (read+write) miss cycles
system.l2.demand_miss_latency::.cpu.data    657494000                       # number of demand (read+write) miss cycles
system.l2.demand_miss_latency::total        804053000                       # number of demand (read+write) miss cycles
system.l2.overall_miss_latency::.cpu.inst    146559000                       # number of overall miss cycles
system.l2.overall_miss_latency::.cpu.data    657494000                       # number of overall miss cycles
system.l2.overall_miss_latency::total       804053000                       # number of overall miss cycles
system.l2.demand_accesses::.cpu.inst            17523                       # number of demand (read+write) accesses
system.l2.demand_accesses::.cpu.data           434478                       # number of demand (read+write) accesses
system.l2.demand_accesses::total               452001                       # number of demand (read+write) accesses
system.l2.overall_accesses::.cpu.inst           17523                       # number of overall (read+write) accesses
system.l2.overall_accesses::.cpu.data          434478                       # number of overall (read+write) accesses
system.l2.overall_accesses::total              452001                       # number of overall (read+write) accesses
system.l2.demand_miss_rate::.cpu.inst        0.111054                       # miss rate for demand accesses
system.l2.demand_miss_rate::.cpu.data        0.020079                       # miss rate for demand accesses
system.l2.demand_miss_rate::total            0.023606                       # miss rate for demand accesses
system.l2.overall_miss_rate::.cpu.inst       0.111054                       # miss rate for overall accesses
system.l2.overall_miss_rate::.cpu.data       0.020079                       # miss rate for overall accesses
system.l2.overall_miss_rate::total           0.023606                       # miss rate for overall accesses
system.l2.demand_avg_miss_latency::.cpu.inst 75312.949640                       # average overall miss latency
system.l2.demand_avg_miss_latency::.cpu.data 75366.116460                       # average overall miss latency
system.l2.demand_avg_miss_latency::total 75356.419869                       # average overall miss latency
system.l2.overall_avg_miss_latency::.cpu.inst 75312.949640                       # average overall miss latency
system.l2.overall_avg_miss_latency::.cpu.data 75366.116460                       # average overall miss latency
system.l2.overall_avg_miss_latency::total 75356.419869                       # average overall miss latency
system.l2.blocked_cycles::no_mshrs                  0                       # number of cycles access was blocked
system.l2.blocked_cycles::no_targets                0                       # number of cycles access was blocked
system.l2.blocked::no_mshrs                         0                       # number of cycles access was blocked
system.l2.blocked::no_targets                       0                       # number of cycles access was blocked
system.l2.avg_blocked_cycles::no_mshrs            nan                       # average number of cycles each access was blocked
system.l2.avg_blocked_cycles::no_targets          nan                       # average number of cycles each access was blocked
system.l2.demand_mshr_hits::.cpu.inst               3                       # number of demand (read+write) MSHR hits
system.l2.demand_mshr_hits::.cpu.data               9                       # number of demand (read+write) MSHR hits
system.l2.demand_mshr_hits::total                  12                       # number of demand (read+write) MSHR hits
system.l2.overall_mshr_hits::.cpu.inst              3                       # number of overall MSHR hits
system.l2.overall_mshr_hits::.cpu.data              9                       # number of overall MSHR hits
system.l2.overall_mshr_hits::total                 12                       # number of overall MSHR hits
system.l2.demand_mshr_misses::.cpu.inst          1943                       # number of demand (read+write) MSHR misses
system.l2.demand_mshr_misses::.cpu.data          8715                       # number of demand (read+write) MSHR misses
system.l2.demand_mshr_misses::total             10658                       # number of demand (read+write) MSHR misses
system.l2.overall_mshr_misses::.cpu.inst         1943                       # number of overall MSHR misses
system.l2.overall_mshr_misses::.cpu.data         8715                       # number of overall MSHR misses
system.l2.overall_mshr_misses::total            10658                       # number of overall MSHR misses
system.l2.demand_mshr_miss_latency::.cpu.inst    127029500                       # number of demand (read+write) MSHR miss cycles
system.l2.demand_mshr_miss_latency::.cpu.data    569481000                       # number of demand (read+write) MSHR miss cycles
system.l2.demand_mshr_miss_latency::total    696510500                       # number of demand (read+write) MSHR miss cycles
system.l2.overall_mshr_miss_latency::.cpu.inst    127029500                       # number of overall MSHR miss cycles
system.l2.overall_mshr_miss_latency::.cpu.data    569481000                       # number of overall MSHR miss cycles
system.l2.overall_mshr_miss_latency::total    696510500                       # number of overall MSHR miss cycles
system.l2.demand_mshr_miss_rate::.cpu.inst     0.110883                       # mshr miss rate for demand accesses
system.l2.demand_mshr_miss_rate::.cpu.data     0.020059                       # mshr miss rate for demand accesses
system.l2.demand_mshr_miss_rate::total       0.023580                       # mshr miss rate for demand accesses
system.l2.overall_mshr_miss_rate::.cpu.inst     0.110883                       # mshr miss rate for overall accesses
system.l2.overall_mshr_miss_rate::.cpu.data     0.020059                       # mshr miss rate for overall accesses
system.l2.overall_mshr_miss_rate::total      0.023580                       # mshr miss rate for overall accesses
system.l2.demand_avg_mshr_miss_latency::.cpu.inst 65378.023675                       # average overall mshr miss latency
system.l2.demand_avg_mshr_miss_latency::.cpu.data 65344.922547                       # average overall mshr miss latency
system.l2.demand_avg_mshr_miss_latency::total 65350.957028                       # average overall mshr miss latency
system.l2.overall_avg_mshr_miss_latency::.cpu.inst 65378.023675                       # average overall mshr miss latency
system.l2.overall_avg_mshr_miss_latency::.cpu.data 65344.922547                       # average overall mshr miss latency
system.l2.overall_avg_mshr_miss_latency::total 65350.957028                       # average overall mshr miss latency
system.l2.replacements                              0                       # number of replacements
system.l2.WritebackDirty_hits::.writebacks       426772                       # number of WritebackDirty hits
system.l2.WritebackDirty_hits::total           426772                       # number of WritebackDirty hits
system.l2.WritebackDirty_accesses::.writebacks       426772                       # number of WritebackDirty accesses(hits+misses)
system.l2.WritebackDirty_accesses::total       426772                       # number of WritebackDirty accesses(hits+misses)
system.l2.WritebackClean_hits::.writebacks        15841                       # number of WritebackClean hits
system.l2.WritebackClean_hits::total            15841                       # number of WritebackClean hits
system.l2.WritebackClean_accesses::.writebacks        15841                       # number of WritebackClean accesses(hits+misses)
system.l2.WritebackClean_accesses::total        15841                       # number of WritebackClean accesses(hits+misses)
system.l2.ReadExReq_hits::.cpu.data            250383                       # number of ReadExReq hits
system.l2.ReadExReq_hits::total                250383                       # number of ReadExReq hits
system.l2.ReadExReq_misses::.cpu.data            7316                       # number of ReadExReq misses
system.l2.ReadExReq_misses::total                7316                       # number of ReadExReq misses
system.l2.ReadExReq_miss_latency::.cpu.data    546063500                       # number of ReadExReq miss cycles
system.l2.ReadExReq_miss_latency::total     546063500                       # number of ReadExReq miss cycles
system.l2.ReadExReq_accesses::.cpu.data        257699                       # number of ReadExReq accesses(hits+misses)
system.l2.ReadExReq_accesses::total            257699                       # number of ReadExReq accesses(hits+misses)
system.l2.ReadExReq_miss_rate::.cpu.data     0.028390                       # miss rate for ReadExReq accesses
system.l2.ReadExReq_miss_rate::total         0.028390                       # miss rate for ReadExReq accesses
system.l2.ReadExReq_avg_miss_latency::.cpu.data 74639.625478                       # average ReadExReq miss latency
system.l2.ReadExReq_avg_miss_latency::total 74639.625478                       # average ReadExReq miss latency
system.l2.ReadExReq_mshr_misses::.cpu.data         7316                       # number of ReadExReq MSHR misses
system.l2.ReadExReq_mshr_misses::total           7316                       # number of ReadExReq MSHR misses
system.l2.ReadExReq_mshr_miss_latency::.cpu.data    472903500                       # number of ReadExReq MSHR miss cycles
system.l2.ReadExReq_mshr_miss_latency::total    472903500                       # number of ReadExReq MSHR miss cycles
system.l2.ReadExReq_mshr_miss_rate::.cpu.data     0.028390                       # mshr miss rate for ReadExReq accesses
system.l2.ReadExReq_mshr_miss_rate::total     0.028390                       # mshr miss rate for ReadExReq accesses
system.l2.ReadExReq_avg_mshr_miss_latency::.cpu.data 64639.625478                       # average ReadExReq mshr miss latency
system.l2.ReadExReq_avg_mshr_miss_latency::total 64639.625478                       # average ReadExReq mshr miss latency
system.l2.ReadCleanReq_hits::.cpu.inst          15577                       # number of ReadCleanReq hits
system.l2.ReadCleanReq_hits::total              15577                       # number of ReadCleanReq hits
system.l2.ReadCleanReq_misses::.cpu.inst         1946                       # number of ReadCleanReq misses
system.l2.ReadCleanReq_misses::total             1946                       # number of ReadCleanReq misses
system.l2.ReadCleanReq_miss_latency::.cpu.inst    146559000                       # number of ReadCleanReq miss cycles
system.l2.ReadCleanReq_miss_latency::total    146559000                       # number of ReadCleanReq miss cycles
system.l2.ReadCleanReq_accesses::.cpu.inst        17523                       # number of ReadCleanReq accesses(hits+misses)
system.l2.ReadCleanReq_accesses::total          17523                       # number of ReadCleanReq accesses(hits+misses)
system.l2.ReadCleanReq_miss_rate::.cpu.inst     0.111054                       # miss rate for ReadCleanReq accesses
system.l2.ReadCleanReq_miss_rate::total      0.111054                       # miss rate for ReadCleanReq accesses
system.l2.ReadCleanReq_avg_miss_latency::.cpu.inst 75312.949640                       # average ReadCleanReq miss latency
system.l2.ReadCleanReq_avg_miss_latency::total 75312.949640                       # average ReadCleanReq miss latency
system.l2.ReadCleanReq_mshr_hits::.cpu.inst            3                       # number of ReadCleanReq MSHR hits
system.l2.ReadCleanReq_mshr_hits::total             3                       # number of ReadCleanReq MSHR hits
system.l2.ReadCleanReq_mshr_misses::.cpu.inst         1943                       # number of ReadCleanReq MSHR misses
system.l2.ReadCleanReq_mshr_misses::total         1943                       # number of ReadCleanReq MSHR misses
system.l2.ReadCleanReq_mshr_miss_latency::.cpu.inst    127029500                       # number of ReadCleanReq MSHR miss cycles
system.l2.ReadCleanReq_mshr_miss_latency::total    127029500                       # number of ReadCleanReq MSHR miss cycles
system.l2.ReadCleanReq_mshr_miss_rate::.cpu.inst     0.110883                       # mshr miss rate for ReadCleanReq accesses
system.l2.ReadCleanReq_mshr_miss_rate::total     0.110883                       # mshr miss rate for ReadCleanReq accesses
system.l2.ReadCleanReq_avg_mshr_miss_latency::.cpu.inst 65378.023675                       # average ReadCleanReq mshr miss latency
system.l2.ReadCleanReq_avg_mshr_miss_latency::total 65378.023675                       # average ReadCleanReq mshr miss latency
system.l2.ReadSharedReq_hits::.cpu.data        175371                       # number of ReadSharedReq hits
system.l2.ReadSharedReq_hits::total            175371                       # number of ReadSharedReq hits
system.l2.ReadSharedReq_misses::.cpu.data         1408                       # number of ReadSharedReq misses
system.l2.ReadSharedReq_misses::total            1408                       # number of ReadSharedReq misses
system.l2.ReadSharedReq_miss_latency::.cpu.data    111430500                       # number of ReadSharedReq miss cycles
system.l2.ReadSharedReq_miss_latency::total    111430500                       # number of ReadSharedReq miss cycles
system.l2.ReadSharedReq_accesses::.cpu.data       176779                       # number of ReadSharedReq accesses(hits+misses)
system.l2.ReadSharedReq_accesses::total        176779                       # number of ReadSharedReq accesses(hits+misses)
system.l2.ReadSharedReq_miss_rate::.cpu.data     0.007965                       # miss rate for ReadSharedReq accesses
system.l2.ReadSharedReq_miss_rate::total     0.007965                       # miss rate for ReadSharedReq accesses
system.l2.ReadSharedReq_avg_miss_latency::.cpu.data 79140.980114                       # average ReadSharedReq miss latency
system.l2.ReadSharedReq_avg_miss_latency::total 79140.980114                       # average ReadSharedReq miss latency
system.l2.ReadSharedReq_mshr_hits::.cpu.data            9                       # number of ReadSharedReq MSHR hits
system.l2.ReadSharedReq_mshr_hits::total            9                       # number of ReadSharedReq MSHR hits
system.l2.ReadSharedReq_mshr_misses::.cpu.data         1399                       # number of ReadSharedReq MSHR misses
system.l2.ReadSharedReq_mshr_misses::total         1399                       # number of ReadSharedReq MSHR misses
system.l2.ReadSharedReq_mshr_miss_latency::.cpu.data     96577500                       # number of ReadSharedReq MSHR miss cycles
system.l2.ReadSharedReq_mshr_miss_latency::total     96577500                       # number of ReadSharedReq MSHR miss cycles
system.l2.ReadSharedReq_mshr_miss_rate::.cpu.data     0.007914                       # mshr miss rate for ReadSharedReq accesses
system.l2.ReadSharedReq_mshr_miss_rate::total     0.007914                       # mshr miss rate for ReadSharedReq accesses
system.l2.ReadSharedReq_avg_mshr_miss_latency::.cpu.data 69033.238027                       # average ReadSharedReq mshr miss latency
system.l2.ReadSharedReq_avg_mshr_miss_latency::total 69033.238027                       # average ReadSharedReq mshr miss latency
system.l2.power_state.pwrStateResidencyTicks::UNDEFINED  73147591000                       # Cumulative time (in ticks) in various power states
system.l2.tags.tagsinuse                 10426.849246                       # Cycle average of tags in use
system.l2.tags.total_refs                      898351                       # Total number of references to valid blocks.
system.l2.tags.sampled_refs                     10658                       # Sample count of references to valid blocks.
system.l2.tags.avg_refs                     84.288891                       # Average number of references to valid blocks.
system.l2.tags.warmup_cycle                     77000                       # Cycle when the warmup percentage was hit.
system.l2.tags.occ_blocks::.cpu.inst      1934.947275                       # Average occupied blocks per requestor
system.l2.tags.occ_blocks::.cpu.data      8491.901971                       # Average occupied blocks per requestor
system.l2.tags.occ_percent::.cpu.inst        0.029525                       # Average percentage of cache occupancy
system.l2.tags.occ_percent::.cpu.data        0.129576                       # Average percentage of cache occupancy
system.l2.tags.occ_percent::total            0.159101                       # Average percentage of cache occupancy
system.l2.tags.occ_task_id_blocks::1024         10658                       # Occupied blocks per task id
system.l2.tags.age_task_id_blocks_1024::4        10658                       # Occupied blocks per task id
system.l2.tags.occ_task_id_percent::1024     0.162628                       # Percentage of cache occupancy per task id
system.l2.tags.tag_accesses                   7197562                       # Number of tag accesses
system.l2.tags.data_accesses                  7197562                       # Number of data accesses
system.l2.tags.power_state.pwrStateResidencyTicks::UNDEFINED  73147591000                       # Cumulative time (in ticks) in various power states
system.mem_ctrls.avgPriority_.cpu.inst::samples      1943.00                       # Average QoS priority value for accepted requests
system.mem_ctrls.avgPriority_.cpu.data::samples      8715.00                       # Average QoS priority value for accepted requests
system.mem_ctrls.priorityMinLatency      0.000000018750                       # per QoS priority minimum request to response latency (s)
system.mem_ctrls.priorityMaxLatency      0.000000579000                       # per QoS priority maximum request to response latency (s)
system.mem_ctrls.numReadWriteTurnArounds            0                       # Number of turnarounds from READ to WRITE
system.mem_ctrls.numWriteReadTurnArounds            0                       # Number of turnarounds from WRITE to READ
system.mem_ctrls.numStayReadState               40086                       # Number of times bus staying in READ state
system.mem_ctrls.numStayWriteState                  0                       # Number of times bus staying in WRITE state
system.mem_ctrls.readReqs                       10658                       # Number of read requests accepted
system.mem_ctrls.writeReqs                          0                       # Number of write requests accepted
system.mem_ctrls.readBursts                     10658                       # Number of controller read bursts, including those serviced by the write queue
system.mem_ctrls.writeBursts                        0                       # Number of controller write bursts, including those merged in the write queue
system.mem_ctrls.servicedByWrQ                      0                       # Number of controller read bursts serviced by the write queue
system.mem_ctrls.mergedWrBursts                     0                       # Number of controller write bursts merged with an existing one
system.mem_ctrls.neitherReadNorWriteReqs            0                       # Number of requests that are neither read nor write
system.mem_ctrls.avgRdQLen                       1.04                       # Average read queue length when enqueuing
system.mem_ctrls.avgWrQLen                       0.00                       # Average write queue length when enqueuing
system.mem_ctrls.numRdRetry                         0                       # Number of times read queue was full causing retry
system.mem_ctrls.numWrRetry                         0                       # Number of times write queue was full causing retry
system.mem_ctrls.readPktSize::0                     0                       # Read request sizes (log2)
system.mem_ctrls.readPktSize::1                     0                       # Read request sizes (log2)
system.mem_ctrls.readPktSize::2                     0                       # Read request sizes (log2)
system.mem_ctrls.readPktSize::3                     0                       # Read request sizes (log2)
system.mem_ctrls.readPktSize::4                     0                       # Read request sizes (log2)
system.mem_ctrls.readPktSize::5                 10658                       # Read request sizes (log2)
system.mem_ctrls.writePktSize::0                    0                       # Write request sizes (log2)
system.mem_ctrls.writePktSize::1                    0                       # Write request sizes (log2)
system.mem_ctrls.writePktSize::2                    0                       # Write request sizes (log2)
system.mem_ctrls.writePktSize::3                    0                       # Write request sizes (log2)
system.mem_ctrls.writePktSize::4                    0                       # Write request sizes (log2)
[...]
system.mem_ctrls.dram.bw_read::.cpu.data      3812566                       # Total read bandwidth from this memory (bytes/s)
system.mem_ctrls.dram.bw_read::total          4662573                       # Total read bandwidth from this memory (bytes/s)
system.mem_ctrls.dram.bw_inst_read::.cpu.inst       850007                       # Instruction read bandwidth from this memory (bytes/s)
system.mem_ctrls.dram.bw_inst_read::total       850007                       # Instruction read bandwidth from this memory (bytes/s)
system.mem_ctrls.dram.bw_total::.cpu.inst       850007                       # Total bandwidth to/from this memory (bytes/s)
system.mem_ctrls.dram.bw_total::.cpu.data      3812566                       # Total bandwidth to/from this memory (bytes/s)
system.mem_ctrls.dram.bw_total::total         4662573                       # Total bandwidth to/from this memory (bytes/s)
system.mem_ctrls.dram.readBursts                10658                       # Number of DRAM read bursts
system.mem_ctrls.dram.writeBursts                   0                       # Number of DRAM write bursts
system.mem_ctrls.dram.perBankRdBursts::0          776                       # Per bank write bursts
system.mem_ctrls.dram.perBankRdBursts::1          718                       # Per bank write bursts
system.mem_ctrls.dram.perBankRdBursts::2          699                       # Per bank write bursts
system.mem_ctrls.dram.perBankRdBursts::3          642                       # Per bank write bursts
system.mem_ctrls.dram.perBankRdBursts::4          676                       # Per bank write bursts
system.mem_ctrls.dram.perBankRdBursts::5          579                       # Per bank write bursts
system.mem_ctrls.dram.perBankRdBursts::6          715                       # Per bank write bursts
system.mem_ctrls.dram.perBankRdBursts::7          708                       # Per bank write bursts
system.mem_ctrls.dram.perBankRdBursts::8          427                       # Per bank write bursts
system.mem_ctrls.dram.perBankRdBursts::9          640                       # Per bank write bursts
system.mem_ctrls.dram.perBankRdBursts::10          571                       # Per bank write bursts
system.mem_ctrls.dram.perBankRdBursts::11          653                       # Per bank write bursts
system.mem_ctrls.dram.perBankRdBursts::12          683                       # Per bank write bursts
system.mem_ctrls.dram.perBankRdBursts::13          759                       # Per bank write bursts
system.mem_ctrls.dram.perBankRdBursts::14          805                       # Per bank write bursts
system.mem_ctrls.dram.perBankRdBursts::15          607                       # Per bank write bursts
system.mem_ctrls.dram.perBankWrBursts::0            0                       # Per bank write bursts
system.mem_ctrls.dram.perBankWrBursts::1            0                       # Per bank write bursts
system.mem_ctrls.dram.perBankWrBursts::2            0                       # Per bank write bursts
system.mem_ctrls.dram.perBankWrBursts::3            0                       # Per bank write bursts
system.mem_ctrls.dram.perBankWrBursts::4            0                       # Per bank write bursts
system.mem_ctrls.dram.perBankWrBursts::5            0                       # Per bank write bursts
system.mem_ctrls.dram.perBankWrBursts::6            0                       # Per bank write bursts
system.mem_ctrls.dram.perBankWrBursts::7            0                       # Per bank write bursts
system.mem_ctrls.dram.perBankWrBursts::8            0                       # Per bank write bursts
system.mem_ctrls.dram.perBankWrBursts::9            0                       # Per bank write bursts
system.mem_ctrls.dram.perBankWrBursts::10            0                       # Per bank write bursts
system.mem_ctrls.dram.perBankWrBursts::11            0                       # Per bank write bursts
system.mem_ctrls.dram.perBankWrBursts::12            0                       # Per bank write bursts
system.mem_ctrls.dram.perBankWrBursts::13            0                       # Per bank write bursts
system.mem_ctrls.dram.perBankWrBursts::14            0                       # Per bank write bursts
system.mem_ctrls.dram.perBankWrBursts::15            0                       # Per bank write bursts
system.mem_ctrls.dram.totQLat                59682000                       # Total ticks spent queuing
system.mem_ctrls.dram.totBusLat              53290000                       # Total ticks spent in databus transfers
system.mem_ctrls.dram.totMemAccLat          259519500                       # Total ticks spent from burst creation until serviced by the DRAM
system.mem_ctrls.dram.avgQLat                 5599.74                       # Average queueing delay per DRAM burst
system.mem_ctrls.dram.avgBusLat               5000.00                       # Average bus latency per DRAM burst
system.mem_ctrls.dram.avgMemAccLat           24349.74                       # Average memory access latency per DRAM burst
system.mem_ctrls.dram.readRowHits                9296                       # Number of row buffer hits during reads
system.mem_ctrls.dram.writeRowHits                  0                       # Number of row buffer hits during writes
system.mem_ctrls.dram.readRowHitRate            87.22                       # Row buffer hit rate for reads
system.mem_ctrls.dram.writeRowHitRate             nan                       # Row buffer hit rate for writes
system.mem_ctrls.dram.bytesPerActivate::samples         1362                       # Bytes accessed per row activation
system.mem_ctrls.dram.bytesPerActivate::mean   500.816446                       # Bytes accessed per row activation
system.mem_ctrls.dram.bytesPerActivate::gmean   335.557996                       # Bytes accessed per row activation
system.mem_ctrls.dram.bytesPerActivate::stdev   372.148884                       # Bytes accessed per row activation
system.mem_ctrls.dram.bytesPerActivate::0-127          232     17.03%     17.03% # Bytes accessed per row activation
system.mem_ctrls.dram.bytesPerActivate::128-255          218     16.01%     33.04% # Bytes accessed per row activation
system.mem_ctrls.dram.bytesPerActivate::256-383          195     14.32%     47.36% # Bytes accessed per row activation
system.mem_ctrls.dram.bytesPerActivate::384-511          122      8.96%     56.31% # Bytes accessed per row activation
system.mem_ctrls.dram.bytesPerActivate::512-639           79      5.80%     62.11% # Bytes accessed per row activation
system.mem_ctrls.dram.bytesPerActivate::640-767           72      5.29%     67.40% # Bytes accessed per row activation
system.mem_ctrls.dram.bytesPerActivate::768-895           72      5.29%     72.69% # Bytes accessed per row activation
system.mem_ctrls.dram.bytesPerActivate::896-1023           29      2.13%     74.82% # Bytes accessed per row activation
system.mem_ctrls.dram.bytesPerActivate::1024-1151          343     25.18%    100.00% # Bytes accessed per row activation
system.mem_ctrls.dram.bytesPerActivate::total         1362                       # Bytes accessed per row activation
system.mem_ctrls.dram.bytesRead                682112                       # Total number of bytes read from DRAM
system.mem_ctrls.dram.bytesWritten                  0                       # Total number of bytes written to DRAM
system.mem_ctrls.dram.avgRdBW                9.325146                       # Average DRAM read bandwidth in MiBytes/s
system.mem_ctrls.dram.avgWrBW                       0                       # Average DRAM write bandwidth in MiBytes/s
system.mem_ctrls.dram.peakBW                 12800.00                       # Theoretical peak bandwidth in MiByte/s
system.mem_ctrls.dram.busUtil                    0.07                       # Data bus utilization in percentage
system.mem_ctrls.dram.busUtilRead                0.07                       # Data bus utilization in percentage for reads
system.mem_ctrls.dram.busUtilWrite               0.00                       # Data bus utilization in percentage for writes
system.mem_ctrls.dram.pageHitRate               87.22                       # Row buffer hit rate, read and write combined
system.mem_ctrls.dram.power_state.pwrStateResidencyTicks::UNDEFINED  73147591000                       # Cumulative time (in ticks) in various power states
system.mem_ctrls.dram.rank0.actEnergy         5469240                       # Energy for activate commands per rank (pJ)
system.mem_ctrls.dram.rank0.preEnergy         2906970                       # Energy for precharge commands per rank (pJ)
system.mem_ctrls.dram.rank0.readEnergy       39362820                       # Energy for read commands per rank (pJ)
system.mem_ctrls.dram.rank0.writeEnergy             0                       # Energy for write commands per rank (pJ)
system.mem_ctrls.dram.rank0.refreshEnergy 5773928160.000001                       # Energy for refresh commands per rank (pJ)
system.mem_ctrls.dram.rank0.actBackEnergy   1803945120                       # Energy for active background per rank (pJ)
system.mem_ctrls.dram.rank0.preBackEnergy  26569563360                       # Energy for precharge background per rank (pJ)
system.mem_ctrls.dram.rank0.actPowerDownEnergy            0                       # Energy for active power-down per rank (pJ)
system.mem_ctrls.dram.rank0.prePowerDownEnergy            0                       # Energy for precharge power-down per rank (pJ)
system.mem_ctrls.dram.rank0.selfRefreshEnergy            0                       # Energy for self refresh per rank (pJ)
system.mem_ctrls.dram.rank0.totalEnergy   34195175670                       # Total energy per rank (pJ)
system.mem_ctrls.dram.rank0.averagePower   467.481912                       # Core power per rank (mW)
system.mem_ctrls.dram.rank0.totalIdleTime            0                       # Total Idle time Per DRAM Rank
system.mem_ctrls.dram.rank0.pwrStateTime::IDLE  69057154750                       # Time in different power states
system.mem_ctrls.dram.rank0.pwrStateTime::REF   2442440000                       # Time in different power states
system.mem_ctrls.dram.rank0.pwrStateTime::SREF            0                       # Time in different power states
system.mem_ctrls.dram.rank0.pwrStateTime::PRE_PDN            0                       # Time in different power states
system.mem_ctrls.dram.rank0.pwrStateTime::ACT   1647996250                       # Time in different power states
system.mem_ctrls.dram.rank0.pwrStateTime::ACT_PDN            0                       # Time in different power states
system.mem_ctrls.dram.rank1.actEnergy         4255440                       # Energy for activate commands per rank (pJ)
system.mem_ctrls.dram.rank1.preEnergy         2261820                       # Energy for precharge commands per rank (pJ)
system.mem_ctrls.dram.rank1.readEnergy       36735300                       # Energy for read commands per rank (pJ)
system.mem_ctrls.dram.rank1.writeEnergy             0                       # Energy for write commands per rank (pJ)
system.mem_ctrls.dram.rank1.refreshEnergy 5773928160.000001                       # Energy for refresh commands per rank (pJ)
system.mem_ctrls.dram.rank1.actBackEnergy   1631867820                       # Energy for active background per rank (pJ)
system.mem_ctrls.dram.rank1.preBackEnergy  26714470560                       # Energy for precharge background per rank (pJ)
system.mem_ctrls.dram.rank1.actPowerDownEnergy            0                       # Energy for active power-down per rank (pJ)
system.mem_ctrls.dram.rank1.prePowerDownEnergy            0                       # Energy for precharge power-down per rank (pJ)
system.mem_ctrls.dram.rank1.selfRefreshEnergy            0                       # Energy for self refresh per rank (pJ)
system.mem_ctrls.dram.rank1.totalEnergy   34163519100                       # Total energy per rank (pJ)
system.mem_ctrls.dram.rank1.averagePower   467.049135                       # Core power per rank (mW)
system.mem_ctrls.dram.rank1.totalIdleTime            0                       # Total Idle time Per DRAM Rank
system.mem_ctrls.dram.rank1.pwrStateTime::IDLE  69435640250                       # Time in different power states
system.mem_ctrls.dram.rank1.pwrStateTime::REF   2442440000                       # Time in different power states
system.mem_ctrls.dram.rank1.pwrStateTime::SREF            0                       # Time in different power states
system.mem_ctrls.dram.rank1.pwrStateTime::PRE_PDN            0                       # Time in different power states
system.mem_ctrls.dram.rank1.pwrStateTime::ACT   1269510750                       # Time in different power states
system.mem_ctrls.dram.rank1.pwrStateTime::ACT_PDN            0                       # Time in different power states
system.mem_ctrls.power_state.pwrStateResidencyTicks::UNDEFINED  73147591000                       # Cumulative time (in ticks) in various power states
system.membus.trans_dist::ReadResp               3342                       # Transaction distribution
system.membus.trans_dist::ReadExReq              7316                       # Transaction distribution
system.membus.trans_dist::ReadExResp             7316                       # Transaction distribution
system.membus.trans_dist::ReadSharedReq          3342                       # Transaction distribution
system.membus.pkt_count_system.l2.mem_side_port::system.mem_ctrls.port        21316                       # Packet count per connected requestor and responder (bytes)
system.membus.pkt_count::total                  21316                       # Packet count per connected requestor and responder (bytes)
system.membus.pkt_size_system.l2.mem_side_port::system.mem_ctrls.port       341056                       # Cumulative packet size per connected requestor and responder (bytes)
system.membus.pkt_size::total                  341056                       # Cumulative packet size per connected requestor and responder (bytes)
system.membus.snoops                                0                       # Total snoops (count)
system.membus.snoopTraffic                          0                       # Total snoop traffic (bytes)
system.membus.snoop_fanout::samples             10658                       # Request fanout histogram
system.membus.snoop_fanout::mean                    0                       # Request fanout histogram
system.membus.snoop_fanout::stdev                   0                       # Request fanout histogram
system.membus.snoop_fanout::underflows              0      0.00%      0.00% # Request fanout histogram
system.membus.snoop_fanout::0                   10658    100.00%    100.00% # Request fanout histogram
system.membus.snoop_fanout::1                       0      0.00%    100.00% # Request fanout histogram
system.membus.snoop_fanout::overflows               0      0.00%    100.00% # Request fanout histogram
system.membus.snoop_fanout::min_value               0                       # Request fanout histogram
system.membus.snoop_fanout::max_value               0                       # Request fanout histogram
system.membus.snoop_fanout::total               10658                       # Request fanout histogram
system.membus.power_state.pwrStateResidencyTicks::UNDEFINED  73147591000                       # Cumulative time (in ticks) in various power states
system.membus.reqLayer0.occupancy            12673500                       # Layer occupancy (ticks)
system.membus.reqLayer0.utilization               0.0                       # Layer utilization (%)
system.membus.respLayer1.occupancy           35124500                       # Layer occupancy (ticks)
system.membus.respLayer1.utilization              0.0                       # Layer utilization (%)
system.tol2bus.trans_dist::ReadResp            194302                       # Transaction distribution
system.tol2bus.trans_dist::WritebackDirty       426772                       # Transaction distribution
system.tol2bus.trans_dist::WritebackClean        16663                       # Transaction distribution
system.tol2bus.trans_dist::CleanEvict            5658                       # Transaction distribution
system.tol2bus.trans_dist::ReadExReq           257699                       # Transaction distribution
system.tol2bus.trans_dist::ReadExResp          257699                       # Transaction distribution
system.tol2bus.trans_dist::ReadCleanReq         17523                       # Transaction distribution
system.tol2bus.trans_dist::ReadSharedReq       176779                       # Transaction distribution
system.tol2bus.pkt_count_system.cpu.icache.mem_side_port::system.l2.cpu_side_port        51709                       # Packet count per connected requestor and responder (bytes)
system.tol2bus.pkt_count_system.cpu.dcache.mem_side_port::system.l2.cpu_side_port      1301386                       # Packet count per connected requestor and responder (bytes)
system.tol2bus.pkt_count::total               1353095                       # Packet count per connected requestor and responder (bytes)
system.tol2bus.pkt_size_system.cpu.icache.mem_side_port::system.l2.cpu_side_port      1093952                       # Cumulative packet size per connected requestor and responder (bytes)
system.tol2bus.pkt_size_system.cpu.dcache.mem_side_port::system.l2.cpu_side_port     27560000                       # Cumulative packet size per connected requestor and responder (bytes)
system.tol2bus.pkt_size::total               28653952                       # Cumulative packet size per connected requestor and responder (bytes)
system.tol2bus.snoops                               0                       # Total snoops (count)
system.tol2bus.snoopTraffic                         0                       # Total snoop traffic (bytes)
system.tol2bus.snoop_fanout::samples           452001                       # Request fanout histogram
system.tol2bus.snoop_fanout::mean            0.006051                       # Request fanout histogram
system.tol2bus.snoop_fanout::stdev           0.077552                       # Request fanout histogram
system.tol2bus.snoop_fanout::underflows             0      0.00%      0.00% # Request fanout histogram
system.tol2bus.snoop_fanout::0                 449266     99.39%     99.39% # Request fanout histogram
system.tol2bus.snoop_fanout::1                   2735      0.61%    100.00% # Request fanout histogram
system.tol2bus.snoop_fanout::2                      0      0.00%    100.00% # Request fanout histogram
system.tol2bus.snoop_fanout::overflows              0      0.00%    100.00% # Request fanout histogram
system.tol2bus.snoop_fanout::min_value              0                       # Request fanout histogram
system.tol2bus.snoop_fanout::max_value              1                       # Request fanout histogram
system.tol2bus.snoop_fanout::total             452001                       # Request fanout histogram
system.tol2bus.power_state.pwrStateResidencyTicks::UNDEFINED  73147591000                       # Cumulative time (in ticks) in various power states
system.tol2bus.reqLayer0.occupancy          672264500                       # Layer occupancy (ticks)
system.tol2bus.reqLayer0.utilization              0.9                       # Layer utilization (%)
system.tol2bus.respLayer0.occupancy          17525495                       # Layer occupancy (ticks)
system.tol2bus.respLayer0.utilization             0.0                       # Layer utilization (%)
system.tol2bus.respLayer1.occupancy         434482491                       # Layer occupancy (ticks)
system.tol2bus.respLayer1.utilization             0.6                       # Layer utilization (%)
system.voltage_domain.voltage                       1                       # Voltage in Volts

---------- End Simulation Statistics   ----------
