
---------- Begin Simulation Statistics ----------
final_tick                                70095021000                       # Number of ticks from beginning of simulation (restored from checkpoints and never reset)
host_inst_rate                                 366591                       # Simulator instruction rate (inst/s)
host_mem_usage                                 670880                       # Number of bytes of host memory used
host_op_rate                                   428276                       # Simulator op (including micro ops) rate (op/s)
host_seconds                                   272.78                       # Real time elapsed on the host
host_tick_rate                              256961996                       # Simulator tick rate (ticks/s)
sim_freq                                 1000000000000                       # Frequency of simulated ticks
sim_insts                                   100000000                       # Number of instructions simulated
sim_ops                                     116826593                       # Number of ops (including micro ops) simulated
sim_seconds                                  0.070095                       # Number of seconds simulated
sim_ticks                                 70095021000                       # Number of ticks simulated
system.cpu.committedInsts                   100000000                       # Number of instructions committed
system.cpu.committedOps                     116826593                       # Number of ops (including micro ops) committed
system.cpu.cpi                               1.401900                       # CPI: cycles per instruction
system.cpu.discardedOps                        503809                       # Number of ops (including micro ops) which were discarded before commit
system.cpu.idleCycles                         5121158                       # Total number of cycles that the object has spent stopped
system.cpu.ipc                               0.713317                       # IPC: instructions per cycle
system.cpu.numCycles                        140190042                       # number of cpu cycles simulated
system.cpu.numFetchSuspends                         0                       # Number of times Execute suspended instruction fetching
system.cpu.numWorkItemsCompleted                    0                       # number of work items this cpu completed
system.cpu.numWorkItemsStarted                      0                       # number of work items this cpu started
system.cpu.op_class_0::No_OpClass                   0      0.00%      0.00% # Class of committed instruction
system.cpu.op_class_0::IntAlu                65231396     55.84%     55.84% # Class of committed instruction
system.cpu.op_class_0::IntMult                 602374      0.52%     56.35% # Class of committed instruction
system.cpu.op_class_0::IntDiv                       0      0.00%     56.35% # Class of committed instruction
system.cpu.op_class_0::FloatAdd                     0      0.00%     56.35% # Class of committed instruction
system.cpu.op_class_0::FloatCmp                     0      0.00%     56.35% # Class of committed instruction
system.cpu.op_class_0::FloatCvt                     0      0.00%     56.35% # Class of committed instruction
system.cpu.op_class_0::FloatMult                    0      0.00%     56.35% # Class of committed instruction
system.cpu.op_class_0::FloatMultAcc                 0      0.00%     56.35% # Class of committed instruction
system.cpu.op_class_0::FloatDiv                     0      0.00%     56.35% # Class of committed instruction
system.cpu.op_class_0::FloatMisc                    0      0.00%     56.35% # Class of committed instruction
system.cpu.op_class_0::FloatSqrt                    0      0.00%     56.35% # Class of committed instruction
system.cpu.op_class_0::SimdAdd                    380      0.00%     56.35% # Class of committed instruction
system.cpu.op_class_0::SimdAddAcc                   0      0.00%     56.35% # Class of committed instruction
system.cpu.op_class_0::SimdAlu                    470      0.00%     56.35% # Class of committed instruction
system.cpu.op_class_0::SimdCmp                    382      0.00%     56.35% # Class of committed instruction
system.cpu.op_class_0::SimdCvt                      0      0.00%     56.35% # Class of committed instruction
system.cpu.op_class_0::SimdMisc                    53      0.00%     56.35% # Class of committed instruction
system.cpu.op_class_0::SimdMult                     0      0.00%     56.35% # Class of committed instruction
system.cpu.op_class_0::SimdMultAcc                  0      0.00%     56.35% # Class of committed instruction
system.cpu.op_class_0::SimdShift                    0      0.00%     56.35% # Class of committed instruction
system.cpu.op_class_0::SimdShiftAcc                 0      0.00%     56.35% # Class of committed instruction
system.cpu.op_class_0::SimdDiv                      0      0.00%     56.35% # Class of committed instruction
system.cpu.op_class_0::SimdSqrt                     0      0.00%     56.35% # Class of committed instruction
system.cpu.op_class_0::SimdFloatAdd            783705      0.67%     57.02% # Class of committed instruction
system.cpu.op_class_0::SimdFloatAlu                 0      0.00%     57.02% # Class of committed instruction
system.cpu.op_class_0::SimdFloatCmp            769156      0.66%     57.68% # Class of committed instruction
system.cpu.op_class_0::SimdFloatCvt            311548      0.27%     57.95% # Class of committed instruction
system.cpu.op_class_0::SimdFloatDiv            152211      0.13%     58.08% # Class of committed instruction
system.cpu.op_class_0::SimdFloatMisc           950762      0.81%     58.89% # Class of committed instruction
system.cpu.op_class_0::SimdFloatMult            86008      0.07%     58.97% # Class of committed instruction
system.cpu.op_class_0::SimdFloatMultAcc         12802      0.01%     58.98% # Class of committed instruction
system.cpu.op_class_0::SimdFloatSqrt                0      0.00%     58.98% # Class of committed instruction
system.cpu.op_class_0::SimdReduceAdd                0      0.00%     58.98% # Class of committed instruction
system.cpu.op_class_0::SimdReduceAlu                0      0.00%     58.98% # Class of committed instruction
system.cpu.op_class_0::SimdReduceCmp                0      0.00%     58.98% # Class of committed instruction
system.cpu.op_class_0::SimdFloatReduceAdd            0      0.00%     58.98% # Class of committed instruction
system.cpu.op_class_0::SimdFloatReduceCmp            0      0.00%     58.98% # Class of committed instruction
system.cpu.op_class_0::SimdAes                      0      0.00%     58.98% # Class of committed instruction
system.cpu.op_class_0::SimdAesMix                   0      0.00%     58.98% # Class of committed instruction
system.cpu.op_class_0::SimdSha1Hash                 0      0.00%     58.98% # Class of committed instruction
system.cpu.op_class_0::SimdSha1Hash2                0      0.00%     58.98% # Class of committed instruction
system.cpu.op_class_0::SimdSha256Hash               0      0.00%     58.98% # Class of committed instruction
system.cpu.op_class_0::SimdSha256Hash2              0      0.00%     58.98% # Class of committed instruction
system.cpu.op_class_0::SimdShaSigma2                0      0.00%     58.98% # Class of committed instruction
system.cpu.op_class_0::SimdShaSigma3                0      0.00%     58.98% # Class of committed instruction
system.cpu.op_class_0::SimdPredAlu                  0      0.00%     58.98% # Class of committed instruction
system.cpu.op_class_0::MemRead               30319972     25.95%     84.93% # Class of committed instruction
system.cpu.op_class_0::MemWrite              17605374     15.07%    100.00% # Class of committed instruction
system.cpu.op_class_0::FloatMemRead                 0      0.00%    100.00% # Class of committed instruction
system.cpu.op_class_0::FloatMemWrite                0      0.00%    100.00% # Class of committed instruction
system.cpu.op_class_0::IprAccess                    0      0.00%    100.00% # Class of committed instruction
system.cpu.op_class_0::InstPrefetch                 0      0.00%    100.00% # Class of committed instruction
system.cpu.op_class_0::total                116826593                       # Class of committed instruction
system.cpu.tickCycles                       135068884                       # Number of cycles that the object actually ticked
system.cpu.workload.numSyscalls                    33                       # Number of system calls
system.membus.snoop_filter.hit_multi_requests            0                       # Number of requests hitting in the snoop filter with multiple (>1) holders of the requested data.
system.membus.snoop_filter.hit_multi_snoops            0                       # Number of snoops hitting in the snoop filter with multiple (>1) holders of the requested data.
system.membus.snoop_filter.hit_single_requests            0                       # Number of requests hitting in the snoop filter with a single holder of the requested data.
system.membus.snoop_filter.hit_single_snoops            0                       # Number of snoops hitting in the snoop filter with a single holder of the requested data.
system.membus.snoop_filter.tot_requests          5648                       # Total number of requests made to the snoop filter.
system.membus.snoop_filter.tot_snoops               0                       # Total number of snoops made to the snoop filter.
system.tol2bus.snoop_filter.hit_multi_requests         1632                       # Number of requests hitting in the snoop filter with multiple (>1) holders of the requested data.
system.tol2bus.snoop_filter.hit_multi_snoops            0                       # Number of snoops hitting in the snoop filter with multiple (>1) holders of the requested data.
system.tol2bus.snoop_filter.hit_single_requests       167812                       # Number of requests hitting in the snoop filter with a single holder of the requested data.
system.tol2bus.snoop_filter.hit_single_snoops            0                       # Number of snoops hitting in the snoop filter with a single holder of the requested data.
system.tol2bus.snoop_filter.tot_requests       337142                       # Total number of requests made to the snoop filter.
system.tol2bus.snoop_filter.tot_snoops              0                       # Total number of snoops made to the snoop filter.
system.clk_domain.clock                          1000                       # Clock period in ticks
system.cpu.branchPred.lookups                 6104989                       # Number of BP lookups
system.cpu.branchPred.condPredicted           5266454                       # Number of conditional branches predicted
system.cpu.branchPred.condIncorrect            188552                       # Number of conditional branches incorrect
system.cpu.branchPred.BTBLookups              3813503                       # Number of BTB lookups
system.cpu.branchPred.BTBHits                 3808589                       # Number of BTB hits
system.cpu.branchPred.BTBHitPct             99.871142                       # BTB Hit Percentage
system.cpu.branchPred.RASUsed                  257419                       # Number of times the RAS was used to get a target.
system.cpu.branchPred.RASIncorrect                  3                       # Number of incorrect RAS predictions.
system.cpu.branchPred.indirectLookups          154319                       # Number of indirect predictor lookups.
system.cpu.branchPred.indirectHits                236                       # Number of indirect target hits.
system.cpu.branchPred.indirectMisses           154083                       # Number of indirect misses.
system.cpu.branchPred.indirectMispredicted          199                       # Number of mispredicted indirect branches.
system.cpu.dcache.demand_hits::.cpu.data     47489640                       # number of demand (read+write) hits
system.cpu.dcache.demand_hits::total         47489640                       # number of demand (read+write) hits
system.cpu.dcache.overall_hits::.cpu.data     47514682                       # number of overall hits
system.cpu.dcache.overall_hits::total        47514682                       # number of overall hits
system.cpu.dcache.demand_misses::.cpu.data       292733                       # number of demand (read+write) misses
system.cpu.dcache.demand_misses::total         292733                       # number of demand (read+write) misses
system.cpu.dcache.overall_misses::.cpu.data       292911                       # number of overall misses
system.cpu.dcache.overall_misses::total        292911                       # number of overall misses
system.cpu.dcache.demand_miss_latency::.cpu.data   3588206000                       # number of demand (read+write) miss cycles
system.cpu.dcache.demand_miss_latency::total   3588206000                       # number of demand (read+write) miss cycles
system.cpu.dcache.overall_miss_latency::.cpu.data   3588206000                       # number of overall miss cycles
system.cpu.dcache.overall_miss_latency::total   3588206000                       # number of overall miss cycles
system.cpu.dcache.demand_accesses::.cpu.data     47782373                       # number of demand (read+write) accesses
system.cpu.dcache.demand_accesses::total     47782373                       # number of demand (read+write) accesses
system.cpu.dcache.overall_accesses::.cpu.data     47807593                       # number of overall (read+write) accesses
system.cpu.dcache.overall_accesses::total     47807593                       # number of overall (read+write) accesses
system.cpu.dcache.demand_miss_rate::.cpu.data     0.006126                       # miss rate for demand accesses
system.cpu.dcache.demand_miss_rate::total     0.006126                       # miss rate for demand accesses
system.cpu.dcache.overall_miss_rate::.cpu.data     0.006127                       # miss rate for overall accesses
system.cpu.dcache.overall_miss_rate::total     0.006127                       # miss rate for overall accesses
system.cpu.dcache.demand_avg_miss_latency::.cpu.data 12257.606761                       # average overall miss latency
system.cpu.dcache.demand_avg_miss_latency::total 12257.606761                       # average overall miss latency
system.cpu.dcache.overall_avg_miss_latency::.cpu.data 12250.157898                       # average overall miss latency
system.cpu.dcache.overall_avg_miss_latency::total 12250.157898                       # average overall miss latency
system.cpu.dcache.blocked_cycles::no_mshrs          135                       # number of cycles access was blocked
system.cpu.dcache.blocked_cycles::no_targets            0                       # number of cycles access was blocked
system.cpu.dcache.blocked::no_mshrs                 2                       # number of cycles access was blocked
system.cpu.dcache.blocked::no_targets               0                       # number of cycles access was blocked
system.cpu.dcache.avg_blocked_cycles::no_mshrs    67.500000                       # average number of cycles each access was blocked
system.cpu.dcache.avg_blocked_cycles::no_targets          nan                       # average number of cycles each access was blocked
system.cpu.dcache.writebacks::.writebacks       163623                       # number of writebacks
system.cpu.dcache.writebacks::total            163623                       # number of writebacks
system.cpu.dcache.demand_mshr_hits::.cpu.data       124967                       # number of demand (read+write) MSHR hits
system.cpu.dcache.demand_mshr_hits::total       124967                       # number of demand (read+write) MSHR hits
system.cpu.dcache.overall_mshr_hits::.cpu.data       124967                       # number of overall MSHR hits
system.cpu.dcache.overall_mshr_hits::total       124967                       # number of overall MSHR hits
system.cpu.dcache.demand_mshr_misses::.cpu.data       167766                       # number of demand (read+write) MSHR misses
system.cpu.dcache.demand_mshr_misses::total       167766                       # number of demand (read+write) MSHR misses
system.cpu.dcache.overall_mshr_misses::.cpu.data       167934                       # number of overall MSHR misses
system.cpu.dcache.overall_mshr_misses::total       167934                       # number of overall MSHR misses
system.cpu.dcache.demand_mshr_miss_latency::.cpu.data   2306412000                       # number of demand (read+write) MSHR miss cycles
system.cpu.dcache.demand_mshr_miss_latency::total   2306412000                       # number of demand (read+write) MSHR miss cycles
system.cpu.dcache.overall_mshr_miss_latency::.cpu.data   2314132000                       # number of overall MSHR miss cycles
system.cpu.dcache.overall_mshr_miss_latency::total   2314132000                       # number of overall MSHR miss cycles
system.cpu.dcache.demand_mshr_miss_rate::.cpu.data     0.003511                       # mshr miss rate for demand accesses
system.cpu.dcache.demand_mshr_miss_rate::total     0.003511                       # mshr miss rate for demand accesses
system.cpu.dcache.overall_mshr_miss_rate::.cpu.data     0.003513                       # mshr miss rate for overall accesses
system.cpu.dcache.overall_mshr_miss_rate::total     0.003513                       # mshr miss rate for overall accesses
system.cpu.dcache.demand_avg_mshr_miss_latency::.cpu.data 13747.791567                       # average overall mshr miss latency
system.cpu.dcache.demand_avg_mshr_miss_latency::total 13747.791567                       # average overall mshr miss latency
system.cpu.dcache.overall_avg_mshr_miss_latency::.cpu.data 13780.008813                       # average overall mshr miss latency
system.cpu.dcache.overall_avg_mshr_miss_latency::total 13780.008813                       # average overall mshr miss latency
system.cpu.dcache.replacements                 166910                       # number of replacements
system.cpu.dcache.ReadReq_hits::.cpu.data     30281937                       # number of ReadReq hits
system.cpu.dcache.ReadReq_hits::total        30281937                       # number of ReadReq hits
system.cpu.dcache.ReadReq_misses::.cpu.data        26193                       # number of ReadReq misses
system.cpu.dcache.ReadReq_misses::total         26193                       # number of ReadReq misses
system.cpu.dcache.ReadReq_miss_latency::.cpu.data    399315000                       # number of ReadReq miss cycles
system.cpu.dcache.ReadReq_miss_latency::total    399315000                       # number of ReadReq miss cycles
system.cpu.dcache.ReadReq_accesses::.cpu.data     30308130                       # number of ReadReq accesses(hits+misses)
system.cpu.dcache.ReadReq_accesses::total     30308130                       # number of ReadReq accesses(hits+misses)
system.cpu.dcache.ReadReq_miss_rate::.cpu.data     0.000864                       # miss rate for ReadReq accesses
system.cpu.dcache.ReadReq_miss_rate::total     0.000864                       # miss rate for ReadReq accesses
system.cpu.dcache.ReadReq_avg_miss_latency::.cpu.data 15245.103654                       # average ReadReq miss latency
system.cpu.dcache.ReadReq_avg_miss_latency::total 15245.103654                       # average ReadReq miss latency
system.cpu.dcache.ReadReq_mshr_hits::.cpu.data          339                       # number of ReadReq MSHR hits
system.cpu.dcache.ReadReq_mshr_hits::total          339                       # number of ReadReq MSHR hits
system.cpu.dcache.ReadReq_mshr_misses::.cpu.data        25854                       # number of ReadReq MSHR misses
system.cpu.dcache.ReadReq_mshr_misses::total        25854                       # number of ReadReq MSHR misses
system.cpu.dcache.ReadReq_mshr_miss_latency::.cpu.data    363646500                       # number of ReadReq MSHR miss cycles
system.cpu.dcache.ReadReq_mshr_miss_latency::total    363646500                       # number of ReadReq MSHR miss cycles
system.cpu.dcache.ReadReq_mshr_miss_rate::.cpu.data     0.000853                       # mshr miss rate for ReadReq accesses
system.cpu.dcache.ReadReq_mshr_miss_rate::total     0.000853                       # mshr miss rate for ReadReq accesses
system.cpu.dcache.ReadReq_avg_mshr_miss_latency::.cpu.data 14065.386401                       # average ReadReq mshr miss latency
system.cpu.dcache.ReadReq_avg_mshr_miss_latency::total 14065.386401                       # average ReadReq mshr miss latency
system.cpu.dcache.WriteReq_hits::.cpu.data     17207703                       # number of WriteReq hits
system.cpu.dcache.WriteReq_hits::total       17207703                       # number of WriteReq hits
system.cpu.dcache.WriteReq_misses::.cpu.data       266540                       # number of WriteReq misses
system.cpu.dcache.WriteReq_misses::total       266540                       # number of WriteReq misses
system.cpu.dcache.WriteReq_miss_latency::.cpu.data   3188891000                       # number of WriteReq miss cycles
system.cpu.dcache.WriteReq_miss_latency::total   3188891000                       # number of WriteReq miss cycles
system.cpu.dcache.WriteReq_accesses::.cpu.data     17474243                       # number of WriteReq accesses(hits+misses)
system.cpu.dcache.WriteReq_accesses::total     17474243                       # number of WriteReq accesses(hits+misses)
system.cpu.dcache.WriteReq_miss_rate::.cpu.data     0.015253                       # miss rate for WriteReq accesses
system.cpu.dcache.WriteReq_miss_rate::total     0.015253                       # miss rate for WriteReq accesses
system.cpu.dcache.WriteReq_avg_miss_latency::.cpu.data 11964.024161                       # average WriteReq miss latency
system.cpu.dcache.WriteReq_avg_miss_latency::total 11964.024161                       # average WriteReq miss latency
system.cpu.dcache.WriteReq_mshr_hits::.cpu.data       124628                       # number of WriteReq MSHR hits
system.cpu.dcache.WriteReq_mshr_hits::total       124628                       # number of WriteReq MSHR hits
system.cpu.dcache.WriteReq_mshr_misses::.cpu.data       141912                       # number of WriteReq MSHR misses
system.cpu.dcache.WriteReq_mshr_misses::total       141912                       # number of WriteReq MSHR misses
system.cpu.dcache.WriteReq_mshr_miss_latency::.cpu.data   1942765500                       # number of WriteReq MSHR miss cycles
system.cpu.dcache.WriteReq_mshr_miss_latency::total   1942765500                       # number of WriteReq MSHR miss cycles
system.cpu.dcache.WriteReq_mshr_miss_rate::.cpu.data     0.008121                       # mshr miss rate for WriteReq accesses
system.cpu.dcache.WriteReq_mshr_miss_rate::total     0.008121                       # mshr miss rate for WriteReq accesses
system.cpu.dcache.WriteReq_avg_mshr_miss_latency::.cpu.data 13689.931084                       # average WriteReq mshr miss latency
system.cpu.dcache.WriteReq_avg_mshr_miss_latency::total 13689.931084                       # average WriteReq mshr miss latency
system.cpu.dcache.SoftPFReq_hits::.cpu.data        25042                       # number of SoftPFReq hits
system.cpu.dcache.SoftPFReq_hits::total         25042                       # number of SoftPFReq hits
system.cpu.dcache.SoftPFReq_misses::.cpu.data          178                       # number of SoftPFReq misses
system.cpu.dcache.SoftPFReq_misses::total          178                       # number of SoftPFReq misses
system.cpu.dcache.SoftPFReq_accesses::.cpu.data        25220                       # number of SoftPFReq accesses(hits+misses)
system.cpu.dcache.SoftPFReq_accesses::total        25220                       # number of SoftPFReq accesses(hits+misses)
system.cpu.dcache.SoftPFReq_miss_rate::.cpu.data     0.007058                       # miss rate for SoftPFReq accesses
system.cpu.dcache.SoftPFReq_miss_rate::total     0.007058                       # miss rate for SoftPFReq accesses
system.cpu.dcache.SoftPFReq_mshr_misses::.cpu.data          168                       # number of SoftPFReq MSHR misses
system.cpu.dcache.SoftPFReq_mshr_misses::total          168                       # number of SoftPFReq MSHR misses
system.cpu.dcache.SoftPFReq_mshr_miss_latency::.cpu.data      7720000                       # number of SoftPFReq MSHR miss cycles
system.cpu.dcache.SoftPFReq_mshr_miss_latency::total      7720000                       # number of SoftPFReq MSHR miss cycles
system.cpu.dcache.SoftPFReq_mshr_miss_rate::.cpu.data     0.006661                       # mshr miss rate for SoftPFReq accesses
system.cpu.dcache.SoftPFReq_mshr_miss_rate::total     0.006661                       # mshr miss rate for SoftPFReq accesses
system.cpu.dcache.SoftPFReq_avg_mshr_miss_latency::.cpu.data 45952.380952                       # average SoftPFReq mshr miss latency
system.cpu.dcache.SoftPFReq_avg_mshr_miss_latency::total 45952.380952                       # average SoftPFReq mshr miss latency
system.cpu.dcache.LoadLockedReq_hits::.cpu.data          166                       # number of LoadLockedReq hits
system.cpu.dcache.LoadLockedReq_hits::total          166                       # number of LoadLockedReq hits
system.cpu.dcache.LoadLockedReq_accesses::.cpu.data          166                       # number of LoadLockedReq accesses(hits+misses)
system.cpu.dcache.LoadLockedReq_accesses::total          166                       # number of LoadLockedReq accesses(hits+misses)
system.cpu.dcache.StoreCondReq_hits::.cpu.data          166                       # number of StoreCondReq hits
system.cpu.dcache.StoreCondReq_hits::total          166                       # number of StoreCondReq hits
system.cpu.dcache.StoreCondReq_accesses::.cpu.data          166                       # number of StoreCondReq accesses(hits+misses)
system.cpu.dcache.StoreCondReq_accesses::total          166                       # number of StoreCondReq accesses(hits+misses)
system.cpu.dcache.power_state.pwrStateResidencyTicks::UNDEFINED  70095021000                       # Cumulative time (in ticks) in various power states
system.cpu.dcache.tags.tagsinuse          1019.112102                       # Cycle average of tags in use
system.cpu.dcache.tags.total_refs            47682948                       # Total number of references to valid blocks.
system.cpu.dcache.tags.sampled_refs            167934                       # Sample count of references to valid blocks.
system.cpu.dcache.tags.avg_refs            283.938619                       # Average number of references to valid blocks.
system.cpu.dcache.tags.warmup_cycle            176500                       # Cycle when the warmup percentage was hit.
system.cpu.dcache.tags.occ_blocks::.cpu.data  1019.112102                       # Average occupied blocks per requestor
system.cpu.dcache.tags.occ_percent::.cpu.data     0.995227                       # Average percentage of cache occupancy
system.cpu.dcache.tags.occ_percent::total     0.995227                       # Average percentage of cache occupancy
system.cpu.dcache.tags.occ_task_id_blocks::1024         1024                       # Occupied blocks per task id
system.cpu.dcache.tags.age_task_id_blocks_1024::0           28                       # Occupied blocks per task id
system.cpu.dcache.tags.age_task_id_blocks_1024::1           14                       # Occupied blocks per task id
system.cpu.dcache.tags.age_task_id_blocks_1024::2          937                       # Occupied blocks per task id
system.cpu.dcache.tags.age_task_id_blocks_1024::4           45                       # Occupied blocks per task id
system.cpu.dcache.tags.occ_task_id_percent::1024            1                       # Percentage of cache occupancy per task id
system.cpu.dcache.tags.tag_accesses         382631334                       # Number of tag accesses
system.cpu.dcache.tags.data_accesses        382631334                       # Number of data accesses
system.cpu.dcache.tags.power_state.pwrStateResidencyTicks::UNDEFINED  70095021000                       # Cumulative time (in ticks) in various power states
system.cpu.dtb.instHits                             0                       # ITB inst hits
system.cpu.dtb.instMisses                           0                       # ITB inst misses
system.cpu.dtb.readHits                             0                       # DTB read hits
system.cpu.dtb.readMisses                           0                       # DTB read misses
system.cpu.dtb.writeHits                            0                       # DTB write hits
system.cpu.dtb.writeMisses                          0                       # DTB write misses
system.cpu.dtb.inserts                              0                       # Number of times an entry is inserted into the TLB
system.cpu.dtb.flushTlb                             0                       # Number of times complete TLB was flushed
system.cpu.dtb.flushTlbMva                          0                       # Number of times TLB was flushed by MVA
system.cpu.dtb.flushTlbMvaAsid                      0                       # Number of times TLB was flushed by MVA & ASID
system.cpu.dtb.flushTlbAsid                         0                       # Number of times TLB was flushed by ASID
system.cpu.dtb.flushedEntries                       0                       # Number of entries that have been flushed from TLB
system.cpu.dtb.alignFaults                          0                       # Number of TLB faults due to alignment restrictions
system.cpu.dtb.prefetchFaults                       0                       # Number of TLB faults due to prefetch
system.cpu.dtb.domainFaults                         0                       # Number of TLB faults due to domain restrictions
system.cpu.dtb.permsFaults                          0                       # Number of TLB faults due to permissions restrictions
system.cpu.dtb.readAccesses                         0                       # DTB read accesses
system.cpu.dtb.writeAccesses                        0                       # DTB write accesses
system.cpu.dtb.instAccesses                         0                       # ITB inst accesses
system.cpu.dtb.hits                                 0                       # Total TLB (inst and data) hits
system.cpu.dtb.misses                               0                       # Total TLB (inst and data) misses
system.cpu.dtb.accesses                             0                       # Total TLB (inst and data) accesses
system.cpu.dtb.stage2_mmu.stage2_tlb.instHits            0                       # ITB inst hits
system.cpu.dtb.stage2_mmu.stage2_tlb.instMisses            0                       # ITB inst misses
system.cpu.dtb.stage2_mmu.stage2_tlb.readHits            0                       # DTB read hits
system.cpu.dtb.stage2_mmu.stage2_tlb.readMisses            0                       # DTB read misses
system.cpu.dtb.stage2_mmu.stage2_tlb.writeHits            0                       # DTB write hits
system.cpu.dtb.stage2_mmu.stage2_tlb.writeMisses            0                       # DTB write misses
system.cpu.dtb.stage2_mmu.stage2_tlb.inserts            0                       # Number of times an entry is inserted into the TLB
system.cpu.dtb.stage2_mmu.stage2_tlb.flushTlb            0                       # Number of times complete TLB was flushed
system.cpu.dtb.stage2_mmu.stage2_tlb.flushTlbMva            0                       # Number of times TLB was flushed by MVA
system.cpu.dtb.stage2_mmu.stage2_tlb.flushTlbMvaAsid            0                       # Number of times TLB was flushed by MVA & ASID
system.cpu.dtb.stage2_mmu.stage2_tlb.flushTlbAsid            0                       # Number of times TLB was flushed by ASID
system.cpu.dtb.stage2_mmu.stage2_tlb.flushedEntries            0                       # Number of entries that have been flushed from TLB
system.cpu.dtb.stage2_mmu.stage2_tlb.alignFaults            0                       # Number of TLB faults due to alignment restrictions
system.cpu.dtb.stage2_mmu.stage2_tlb.prefetchFaults            0                       # Number of TLB faults due to prefetch
system.cpu.dtb.stage2_mmu.stage2_tlb.domainFaults            0                       # Number of TLB faults due to domain restrictions
system.cpu.dtb.stage2_mmu.stage2_tlb.permsFaults            0                       # Number of TLB faults due to permissions restrictions
system.cpu.dtb.stage2_mmu.stage2_tlb.readAccesses            0                       # DTB read accesses
system.cpu.dtb.stage2_mmu.stage2_tlb.writeAccesses            0                       # DTB write accesses
system.cpu.dtb.stage2_mmu.stage2_tlb.instAccesses            0                       # ITB inst accesses
system.cpu.dtb.stage2_mmu.stage2_tlb.hits            0                       # Total TLB (inst and data) hits
system.cpu.dtb.stage2_mmu.stage2_tlb.misses            0                       # Total TLB (inst and data) misses
system.cpu.dtb.stage2_mmu.stage2_tlb.accesses            0                       # Total TLB (inst and data) accesses
system.cpu.dtb.stage2_mmu.stage2_tlb.walker.walks            0                       # Table walker walks requested
system.cpu.dtb.stage2_mmu.stage2_tlb.walker.requestOrigin_Requested::Data            0                       # Table walker requests started/completed, data/inst
system.cpu.dtb.stage2_mmu.stage2_tlb.walker.requestOrigin_Requested::Inst            0                       # Table walker requests started/completed, data/inst
system.cpu.dtb.stage2_mmu.stage2_tlb.walker.requestOrigin_Requested::total            0                       # Table walker requests started/completed, data/inst
system.cpu.dtb.stage2_mmu.stage2_tlb.walker.requestOrigin_Completed::Data            0                       # Table walker requests started/completed, data/inst
system.cpu.dtb.stage2_mmu.stage2_tlb.walker.requestOrigin_Completed::Inst            0                       # Table walker requests started/completed, data/inst
system.cpu.dtb.stage2_mmu.stage2_tlb.walker.requestOrigin_Completed::total            0                       # Table walker requests started/completed, data/inst
system.cpu.dtb.stage2_mmu.stage2_tlb.walker.requestOrigin::total            0                       # Table walker requests started/completed, data/inst
system.cpu.dtb.stage2_mmu.stage2_tlb.walker.power_state.pwrStateResidencyTicks::UNDEFINED  70095021000                       # Cumulative time (in ticks) in various power states
system.cpu.dtb.walker.walks                         0                       # Table walker walks requested
system.cpu.dtb.walker.requestOrigin_Requested::Data            0                       # Table walker requests started/completed, data/inst
system.cpu.dtb.walker.requestOrigin_Requested::Inst            0                       # Table walker requests started/completed, data/inst
system.cpu.dtb.walker.requestOrigin_Requested::total            0                       # Table walker requests started/completed, data/inst
system.cpu.dtb.walker.requestOrigin_Completed::Data            0                       # Table walker requests started/completed, data/inst
system.cpu.dtb.walker.requestOrigin_Completed::Inst            0                       # Table walker requests started/completed, data/inst
system.cpu.dtb.walker.requestOrigin_Completed::total            0                       # Table walker requests started/completed, data/inst
system.cpu.dtb.walker.requestOrigin::total            0                       # Table walker requests started/completed, data/inst
system.cpu.dtb.walker.power_state.pwrStateResidencyTicks::UNDEFINED  70095021000                       # Cumulative time (in ticks) in various power states
system.cpu.fetch2.intInstructions            37763757                       # Number of integer instructions successfully decoded
system.cpu.fetch2.fpInstructions                    0                       # Number of floating point instructions successfully decoded
system.cpu.fetch2.vecInstructions                   0                       # Number of SIMD instructions successfully decoded
system.cpu.fetch2.loadInstructions           17245496                       # Number of memory load instructions successfully decoded
system.cpu.fetch2.storeInstructions          14150835                       # Number of memory store instructions successfully decoded
system.cpu.fetch2.amoInstructions                   0                       # Number of memory atomic instructions successfully decoded
system.cpu.icache.demand_hits::.cpu.inst     15473832                       # number of demand (read+write) hits
system.cpu.icache.demand_hits::total         15473832                       # number of demand (read+write) hits
system.cpu.icache.overall_hits::.cpu.inst     15473832                       # number of overall hits
system.cpu.icache.overall_hits::total        15473832                       # number of overall hits
system.cpu.icache.demand_misses::.cpu.inst         1405                       # number of demand (read+write) misses
system.cpu.icache.demand_misses::total           1405                       # number of demand (read+write) misses
system.cpu.icache.overall_misses::.cpu.inst         1405                       # number of overall misses
system.cpu.icache.overall_misses::total          1405                       # number of overall misses
system.cpu.icache.demand_miss_latency::.cpu.inst     95812500                       # number of demand (read+write) miss cycles
system.cpu.icache.demand_miss_latency::total     95812500                       # number of demand (read+write) miss cycles
system.cpu.icache.overall_miss_latency::.cpu.inst     95812500                       # number of overall miss cycles
system.cpu.icache.overall_miss_latency::total     95812500                       # number of overall miss cycles
system.cpu.icache.demand_accesses::.cpu.inst     15475237                       # number of demand (read+write) accesses
system.cpu.icache.demand_accesses::total     15475237                       # number of demand (read+write) accesses
system.cpu.icache.overall_accesses::.cpu.inst     15475237                       # number of overall (read+write) accesses
system.cpu.icache.overall_accesses::total     15475237                       # number of overall (read+write) accesses
system.cpu.icache.demand_miss_rate::.cpu.inst     0.000091                       # miss rate for demand accesses
system.cpu.icache.demand_miss_rate::total     0.000091                       # miss rate for demand accesses
system.cpu.icache.overall_miss_rate::.cpu.inst     0.000091                       # miss rate for overall accesses
system.cpu.icache.overall_miss_rate::total     0.000091                       # miss rate for overall accesses
system.cpu.icache.demand_avg_miss_latency::.cpu.inst 68193.950178                       # average overall miss latency
system.cpu.icache.demand_avg_miss_latency::total 68193.950178                       # average overall miss latency
system.cpu.icache.overall_avg_miss_latency::.cpu.inst 68193.950178                       # average overall miss latency
system.cpu.icache.overall_avg_miss_latency::total 68193.950178                       # average overall miss latency
system.cpu.icache.blocked_cycles::no_mshrs            0                       # number of cycles access was blocked
system.cpu.icache.blocked_cycles::no_targets            0                       # number of cycles access was blocked
system.cpu.icache.blocked::no_mshrs                 0                       # number of cycles access was blocked
system.cpu.icache.blocked::no_targets               0                       # number of cycles access was blocked
system.cpu.icache.avg_blocked_cycles::no_mshrs          nan                       # average number of cycles each access was blocked
system.cpu.icache.avg_blocked_cycles::no_targets          nan                       # average number of cycles each access was blocked
system.cpu.icache.writebacks::.writebacks          893                       # number of writebacks
system.cpu.icache.writebacks::total               893                       # number of writebacks
system.cpu.icache.demand_mshr_misses::.cpu.inst         1405                       # number of demand (read+write) MSHR misses
system.cpu.icache.demand_mshr_misses::total         1405                       # number of demand (read+write) MSHR misses
system.cpu.icache.overall_mshr_misses::.cpu.inst         1405                       # number of overall MSHR misses
system.cpu.icache.overall_mshr_misses::total         1405                       # number of overall MSHR misses
system.cpu.icache.demand_mshr_miss_latency::.cpu.inst     94407500                       # number of demand (read+write) MSHR miss cycles
system.cpu.icache.demand_mshr_miss_latency::total     94407500                       # number of demand (read+write) MSHR miss cycles
system.cpu.icache.overall_mshr_miss_latency::.cpu.inst     94407500                       # number of overall MSHR miss cycles
system.cpu.icache.overall_mshr_miss_latency::total     94407500                       # number of overall MSHR miss cycles
system.cpu.icache.demand_mshr_miss_rate::.cpu.inst     0.000091                       # mshr miss rate for demand accesses
system.cpu.icache.demand_mshr_miss_rate::total     0.000091                       # mshr miss rate for demand accesses
system.cpu.icache.overall_mshr_miss_rate::.cpu.inst     0.000091                       # mshr miss rate for overall accesses
system.cpu.icache.overall_mshr_miss_rate::total     0.000091                       # mshr miss rate for overall accesses
system.cpu.icache.demand_avg_mshr_miss_latency::.cpu.inst 67193.950178                       # average overall mshr miss latency
system.cpu.icache.demand_avg_mshr_miss_latency::total 67193.950178                       # average overall mshr miss latency
system.cpu.icache.overall_avg_mshr_miss_latency::.cpu.inst 67193.950178                       # average overall mshr miss latency
system.cpu.icache.overall_avg_mshr_miss_latency::total 67193.950178                       # average overall mshr miss latency
system.cpu.icache.replacements                    893                       # number of replacements
system.cpu.icache.ReadReq_hits::.cpu.inst     15473832                       # number of ReadReq hits
system.cpu.icache.ReadReq_hits::total        15473832                       # number of ReadReq hits
system.cpu.icache.ReadReq_misses::.cpu.inst         1405                       # number of ReadReq misses
system.cpu.icache.ReadReq_misses::total          1405                       # number of ReadReq misses
system.cpu.icache.ReadReq_miss_latency::.cpu.inst     95812500                       # number of ReadReq miss cycles
system.cpu.icache.ReadReq_miss_latency::total     95812500                       # number of ReadReq miss cycles
system.cpu.icache.ReadReq_accesses::.cpu.inst     15475237                       # number of ReadReq accesses(hits+misses)
system.cpu.icache.ReadReq_accesses::total     15475237                       # number of ReadReq accesses(hits+misses)
system.cpu.icache.ReadReq_miss_rate::.cpu.inst     0.000091                       # miss rate for ReadReq accesses
system.cpu.icache.ReadReq_miss_rate::total     0.000091                       # miss rate for ReadReq accesses
system.cpu.icache.ReadReq_avg_miss_latency::.cpu.inst 68193.950178                       # average ReadReq miss latency
system.cpu.icache.ReadReq_avg_miss_latency::total 68193.950178                       # average ReadReq miss latency
system.cpu.icache.ReadReq_mshr_misses::.cpu.inst         1405                       # number of ReadReq MSHR misses
system.cpu.icache.ReadReq_mshr_misses::total         1405                       # number of ReadReq MSHR misses
system.cpu.icache.ReadReq_mshr_miss_latency::.cpu.inst     94407500                       # number of ReadReq MSHR miss cycles
system.cpu.icache.ReadReq_mshr_miss_latency::total     94407500                       # number of ReadReq MSHR miss cycles
system.cpu.icache.ReadReq_mshr_miss_rate::.cpu.inst     0.000091                       # mshr miss rate for ReadReq accesses
system.cpu.icache.ReadReq_mshr_miss_rate::total     0.000091                       # mshr miss rate for ReadReq accesses
system.cpu.icache.ReadReq_avg_mshr_miss_latency::.cpu.inst 67193.950178                       # average ReadReq mshr miss latency
system.cpu.icache.ReadReq_avg_mshr_miss_latency::total 67193.950178                       # average ReadReq mshr miss latency
system.cpu.icache.power_state.pwrStateResidencyTicks::UNDEFINED  70095021000                       # Cumulative time (in ticks) in various power states
system.cpu.icache.tags.tagsinuse           511.782718                       # Cycle average of tags in use
system.cpu.icache.tags.total_refs            15475237                       # Total number of references to valid blocks.
system.cpu.icache.tags.sampled_refs              1405                       # Sample count of references to valid blocks.
system.cpu.icache.tags.avg_refs          11014.403559                       # Average number of references to valid blocks.
system.cpu.icache.tags.warmup_cycle             87500                       # Cycle when the warmup percentage was hit.
system.cpu.icache.tags.occ_blocks::.cpu.inst   511.782718                       # Average occupied blocks per requestor
system.cpu.icache.tags.occ_percent::.cpu.inst     0.999576                       # Average percentage of cache occupancy
system.cpu.icache.tags.occ_percent::total     0.999576                       # Average percentage of cache occupancy
system.cpu.icache.tags.occ_task_id_blocks::1024          512                       # Occupied blocks per task id
system.cpu.icache.tags.age_task_id_blocks_1024::4          512                       # Occupied blocks per task id
system.cpu.icache.tags.occ_task_id_percent::1024            1                       # Percentage of cache occupancy per task id
system.cpu.icache.tags.tag_accesses         123803301                       # Number of tag accesses
system.cpu.icache.tags.data_accesses        123803301                       # Number of data accesses
system.cpu.icache.tags.power_state.pwrStateResidencyTicks::UNDEFINED  70095021000                       # Cumulative time (in ticks) in various power states
system.cpu.itb.instHits                             0                       # ITB inst hits
system.cpu.itb.instMisses                           0                       # ITB inst misses
system.cpu.itb.readHits                             0                       # DTB read hits
system.cpu.itb.readMisses                           0                       # DTB read misses
system.cpu.itb.writeHits                            0                       # DTB write hits
system.cpu.itb.writeMisses                          0                       # DTB write misses
system.cpu.itb.inserts                              0                       # Number of times an entry is inserted into the TLB
system.cpu.itb.flushTlb                             0                       # Number of times complete TLB was flushed
system.cpu.itb.flushTlbMva                          0                       # Number of times TLB was flushed by MVA
system.cpu.itb.flushTlbMvaAsid                      0                       # Number of times TLB was flushed by MVA & ASID
system.cpu.itb.flushTlbAsid                         0                       # Number of times TLB was flushed by ASID
system.cpu.itb.flushedEntries                       0                       # Number of entries that have been flushed from TLB
system.cpu.itb.alignFaults                          0                       # Number of TLB faults due to alignment restrictions
system.cpu.itb.prefetchFaults                       0                       # Number of TLB faults due to prefetch
system.cpu.itb.domainFaults                         0                       # Number of TLB faults due to domain restrictions
system.cpu.itb.permsFaults                          0                       # Number of TLB faults due to permissions restrictions
system.cpu.itb.readAccesses                         0                       # DTB read accesses
system.cpu.itb.writeAccesses                        0                       # DTB write accesses
system.cpu.itb.instAccesses                         0                       # ITB inst accesses
system.cpu.itb.hits                                 0                       # Total TLB (inst and data) hits
system.cpu.itb.misses                               0                       # Total TLB (inst and data) misses
system.cpu.itb.accesses                             0                       # Total TLB (inst and data) accesses
system.cpu.itb.stage2_mmu.stage2_tlb.instHits            0                       # ITB inst hits
system.cpu.itb.stage2_mmu.stage2_tlb.instMisses            0                       # ITB inst misses
system.cpu.itb.stage2_mmu.stage2_tlb.readHits            0                       # DTB read hits
system.cpu.itb.stage2_mmu.stage2_tlb.readMisses            0                       # DTB read misses
system.cpu.itb.stage2_mmu.stage2_tlb.writeHits            0                       # DTB write hits
system.cpu.itb.stage2_mmu.stage2_tlb.writeMisses            0                       # DTB write misses
system.cpu.itb.stage2_mmu.stage2_tlb.inserts            0                       # Number of times an entry is inserted into the TLB
system.cpu.itb.stage2_mmu.stage2_tlb.flushTlb            0                       # Number of times complete TLB was flushed
system.cpu.itb.stage2_mmu.stage2_tlb.flushTlbMva            0                       # Number of times TLB was flushed by MVA
system.cpu.itb.stage2_mmu.stage2_tlb.flushTlbMvaAsid            0                       # Number of times TLB was flushed by MVA & ASID
system.cpu.itb.stage2_mmu.stage2_tlb.flushTlbAsid            0                       # Number of times TLB was flushed by ASID
system.cpu.itb.stage2_mmu.stage2_tlb.flushedEntries            0                       # Number of entries that have been flushed from TLB
system.cpu.itb.stage2_mmu.stage2_tlb.alignFaults            0                       # Number of TLB faults due to alignment restrictions
system.cpu.itb.stage2_mmu.stage2_tlb.prefetchFaults            0                       # Number of TLB faults due to prefetch
system.cpu.itb.stage2_mmu.stage2_tlb.domainFaults            0                       # Number of TLB faults due to domain restrictions
system.cpu.itb.stage2_mmu.stage2_tlb.permsFaults            0                       # Number of TLB faults due to permissions restrictions
system.cpu.itb.stage2_mmu.stage2_tlb.readAccesses            0                       # DTB read accesses
system.cpu.itb.stage2_mmu.stage2_tlb.writeAccesses            0                       # DTB write accesses
system.cpu.itb.stage2_mmu.stage2_tlb.instAccesses            0                       # ITB inst accesses
system.cpu.itb.stage2_mmu.stage2_tlb.hits            0                       # Total TLB (inst and data) hits
system.cpu.itb.stage2_mmu.stage2_tlb.misses            0                       # Total TLB (inst and data) misses
system.cpu.itb.stage2_mmu.stage2_tlb.accesses            0                       # Total TLB (inst and data) accesses
system.cpu.itb.stage2_mmu.stage2_tlb.walker.walks            0                       # Table walker walks requested
system.cpu.itb.stage2_mmu.stage2_tlb.walker.requestOrigin_Requested::Data            0                       # Table walker requests started/completed, data/inst
system.cpu.itb.stage2_mmu.stage2_tlb.walker.requestOrigin_Requested::Inst            0                       # Table walker requests started/completed, data/inst
system.cpu.itb.stage2_mmu.stage2_tlb.walker.requestOrigin_Requested::total            0                       # Table walker requests started/completed, data/inst
system.cpu.itb.stage2_mmu.stage2_tlb.walker.requestOrigin_Completed::Data            0                       # Table walker requests started/completed, data/inst
system.cpu.itb.stage2_mmu.stage2_tlb.walker.requestOrigin_Completed::Inst            0                       # Table walker requests started/completed, data/inst
system.cpu.itb.stage2_mmu.stage2_tlb.walker.requestOrigin_Completed::total            0                       # Table walker requests started/completed, data/inst
system.cpu.itb.stage2_mmu.stage2_tlb.walker.requestOrigin::total            0                       # Table walker requests started/completed, data/inst
system.cpu.itb.stage2_mmu.stage2_tlb.walker.power_state.pwrStateResidencyTicks::UNDEFINED  70095021000                       # Cumulative time (in ticks) in various power states
system.cpu.itb.walker.walks                         0                       # Table walker walks requested
system.cpu.itb.walker.requestOrigin_Requested::Data            0                       # Table walker requests started/completed, data/inst
system.cpu.itb.walker.requestOrigin_Requested::Inst            0                       # Table walker requests started/completed, data/inst
system.cpu.itb.walker.requestOrigin_Requested::total            0                       # Table walker requests started/completed, data/inst
system.cpu.itb.walker.requestOrigin_Completed::Data            0                       # Table walker requests started/completed, data/inst
system.cpu.itb.walker.requestOrigin_Completed::Inst            0                       # Table walker requests started/completed, data/inst
system.cpu.itb.walker.requestOrigin_Completed::total            0                       # Table walker requests started/completed, data/inst
system.cpu.itb.walker.requestOrigin::total            0                       # Table walker requests started/completed, data/inst
system.cpu.itb.walker.power_state.pwrStateResidencyTicks::UNDEFINED  70095021000                       # Cumulative time (in ticks) in various power states
system.cpu.power_state.pwrStateResidencyTicks::ON  70095021000                       # Cumulative time (in ticks) in various power states
system.cpu.thread0.numInsts                 100000000                       # Number of Instructions committed
system.cpu.thread0.numOps                   116826593                       # Number of Ops committed
system.cpu.thread0.numMemRefs                       0                       # Number of Memory References
system.cpu_clk_domain.clock                       500                       # Clock period in ticks
system.cpu_voltage_domain.voltage                   1                       # Voltage in Volts
system.l2.demand_hits::.cpu.inst                  228                       # number of demand (read+write) hits
system.l2.demand_hits::.cpu.data               163456                       # number of demand (read+write) hits
system.l2.demand_hits::total                   163684                       # number of demand (read+write) hits
system.l2.overall_hits::.cpu.inst                 228                       # number of overall hits
system.l2.overall_hits::.cpu.data              163456                       # number of overall hits
system.l2.overall_hits::total                  163684                       # number of overall hits
system.l2.demand_misses::.cpu.inst               1177                       # number of demand (read+write) misses
system.l2.demand_misses::.cpu.data               4478                       # number of demand (read+write) misses
system.l2.demand_misses::total                   5655                       # number of demand (read+write) misses
system.l2.overall_misses::.cpu.inst              1177                       # number of overall misses
system.l2.overall_misses::.cpu.data              4478                       # number of overall misses
system.l2.overall_misses::total                  5655                       # number of overall misses
system.l2.demand_miss_latency::.cpu.inst     89853000                       # number of demand (read+write) miss cycles
system.l2.demand_miss_latency::.cpu.data    340583500                       # number of demand (read+write) miss cycles
system.l2.demand_miss_latency::total        430436500                       # number of demand (read+write) miss cycles
system.l2.overall_miss_latency::.cpu.inst     89853000                       # number of overall miss cycles
system.l2.overall_miss_latency::.cpu.data    340583500                       # number of overall miss cycles
system.l2.overall_miss_latency::total       430436500                       # number of overall miss cycles
system.l2.demand_accesses::.cpu.inst             1405                       # number of demand (read+write) accesses
system.l2.demand_accesses::.cpu.data           167934                       # number of demand (read+write) accesses
system.l2.demand_accesses::total               169339                       # number of demand (read+write) accesses
system.l2.overall_accesses::.cpu.inst            1405                       # number of overall (read+write) accesses
system.l2.overall_accesses::.cpu.data          167934                       # number of overall (read+write) accesses
system.l2.overall_accesses::total              169339                       # number of overall (read+write) accesses
system.l2.demand_miss_rate::.cpu.inst        0.837722                       # miss rate for demand accesses
system.l2.demand_miss_rate::.cpu.data        0.026665                       # miss rate for demand accesses
system.l2.demand_miss_rate::total            0.033395                       # miss rate for demand accesses
system.l2.overall_miss_rate::.cpu.inst       0.837722                       # miss rate for overall accesses
system.l2.overall_miss_rate::.cpu.data       0.026665                       # miss rate for overall accesses
system.l2.overall_miss_rate::total           0.033395                       # miss rate for overall accesses
system.l2.demand_avg_miss_latency::.cpu.inst 76340.696686                       # average overall miss latency
system.l2.demand_avg_miss_latency::.cpu.data 76057.056722                       # average overall miss latency
system.l2.demand_avg_miss_latency::total 76116.091954                       # average overall miss latency
system.l2.overall_avg_miss_latency::.cpu.inst 76340.696686                       # average overall miss latency
system.l2.overall_avg_miss_latency::.cpu.data 76057.056722                       # average overall miss latency
system.l2.overall_avg_miss_latency::total 76116.091954                       # average overall miss latency
system.l2.blocked_cycles::no_mshrs                  0                       # number of cycles access was blocked
system.l2.blocked_cycles::no_targets                0                       # number of cycles access was blocked
system.l2.blocked::no_mshrs                         0                       # number of cycles access was blocked
system.l2.blocked::no_targets                       0                       # number of cycles access was blocked
system.l2.avg_blocked_cycles::no_mshrs            nan                       # average number of cycles each access was blocked
system.l2.avg_blocked_cycles::no_targets          nan                       # average number of cycles each access was blocked
system.l2.demand_mshr_hits::.cpu.inst               2                       # number of demand (read+write) MSHR hits
system.l2.demand_mshr_hits::.cpu.data               5                       # number of demand (read+write) MSHR hits
system.l2.demand_mshr_hits::total                   7                       # number of demand (read+write) MSHR hits
system.l2.overall_mshr_hits::.cpu.inst              2                       # number of overall MSHR hits
system.l2.overall_mshr_hits::.cpu.data              5                       # number of overall MSHR hits
system.l2.overall_mshr_hits::total                  7                       # number of overall MSHR hits
system.l2.demand_mshr_misses::.cpu.inst          1175                       # number of demand (read+write) MSHR misses
system.l2.demand_mshr_misses::.cpu.data          4473                       # number of demand (read+write) MSHR misses
system.l2.demand_mshr_misses::total              5648                       # number of demand (read+write) MSHR misses
system.l2.overall_mshr_misses::.cpu.inst         1175                       # number of overall MSHR misses
system.l2.overall_mshr_misses::.cpu.data         4473                       # number of overall MSHR misses
system.l2.overall_mshr_misses::total             5648                       # number of overall MSHR misses
system.l2.demand_mshr_miss_latency::.cpu.inst     78007000                       # number of demand (read+write) MSHR miss cycles
system.l2.demand_mshr_miss_latency::.cpu.data    295521000                       # number of demand (read+write) MSHR miss cycles
system.l2.demand_mshr_miss_latency::total    373528000                       # number of demand (read+write) MSHR miss cycles
system.l2.overall_mshr_miss_latency::.cpu.inst     78007000                       # number of overall MSHR miss cycles
system.l2.overall_mshr_miss_latency::.cpu.data    295521000                       # number of overall MSHR miss cycles
system.l2.overall_mshr_miss_latency::total    373528000                       # number of overall MSHR miss cycles
system.l2.demand_mshr_miss_rate::.cpu.inst     0.836299                       # mshr miss rate for demand accesses
system.l2.demand_mshr_miss_rate::.cpu.data     0.026635                       # mshr miss rate for demand accesses
system.l2.demand_mshr_miss_rate::total       0.033353                       # mshr miss rate for demand accesses
system.l2.overall_mshr_miss_rate::.cpu.inst     0.836299                       # mshr miss rate for overall accesses
system.l2.overall_mshr_miss_rate::.cpu.data     0.026635                       # mshr miss rate for overall accesses
system.l2.overall_mshr_miss_rate::total      0.033353                       # mshr miss rate for overall accesses
system.l2.demand_avg_mshr_miss_latency::.cpu.inst 66388.936170                       # average overall mshr miss latency
system.l2.demand_avg_mshr_miss_latency::.cpu.data 66067.739772                       # average overall mshr miss latency
system.l2.demand_avg_mshr_miss_latency::total 66134.560907                       # average overall mshr miss latency
system.l2.overall_avg_mshr_miss_latency::.cpu.inst 66388.936170                       # average overall mshr miss latency
system.l2.overall_avg_mshr_miss_latency::.cpu.data 66067.739772                       # average overall mshr miss latency
system.l2.overall_avg_mshr_miss_latency::total 66134.560907                       # average overall mshr miss latency
system.l2.replacements                              0                       # number of replacements
system.l2.WritebackDirty_hits::.writebacks       163623                       # number of WritebackDirty hits
system.l2.WritebackDirty_hits::total           163623                       # number of WritebackDirty hits
system.l2.WritebackDirty_accesses::.writebacks       163623                       # number of WritebackDirty accesses(hits+misses)
system.l2.WritebackDirty_accesses::total       163623                       # number of WritebackDirty accesses(hits+misses)
system.l2.WritebackClean_hits::.writebacks          856                       # number of WritebackClean hits
system.l2.WritebackClean_hits::total              856                       # number of WritebackClean hits
system.l2.WritebackClean_accesses::.writebacks          856                       # number of WritebackClean accesses(hits+misses)
system.l2.WritebackClean_accesses::total          856                       # number of WritebackClean accesses(hits+misses)
system.l2.ReadExReq_hits::.cpu.data            138231                       # number of ReadExReq hits
system.l2.ReadExReq_hits::total                138231                       # number of ReadExReq hits
system.l2.ReadExReq_misses::.cpu.data            3681                       # number of ReadExReq misses
system.l2.ReadExReq_misses::total                3681                       # number of ReadExReq misses
system.l2.ReadExReq_miss_latency::.cpu.data    278305500                       # number of ReadExReq miss cycles
system.l2.ReadExReq_miss_latency::total     278305500                       # number of ReadExReq miss cycles
system.l2.ReadExReq_accesses::.cpu.data        141912                       # number of ReadExReq accesses(hits+misses)
system.l2.ReadExReq_accesses::total            141912                       # number of ReadExReq accesses(hits+misses)
system.l2.ReadExReq_miss_rate::.cpu.data     0.025939                       # miss rate for ReadExReq accesses
system.l2.ReadExReq_miss_rate::total         0.025939                       # miss rate for ReadExReq accesses
system.l2.ReadExReq_avg_miss_latency::.cpu.data 75605.949470                       # average ReadExReq miss latency
system.l2.ReadExReq_avg_miss_latency::total 75605.949470                       # average ReadExReq miss latency
system.l2.ReadExReq_mshr_misses::.cpu.data         3681                       # number of ReadExReq MSHR misses
system.l2.ReadExReq_mshr_misses::total           3681                       # number of ReadExReq MSHR misses
system.l2.ReadExReq_mshr_miss_latency::.cpu.data    241495500                       # number of ReadExReq MSHR miss cycles
system.l2.ReadExReq_mshr_miss_latency::total    241495500                       # number of ReadExReq MSHR miss cycles
system.l2.ReadExReq_mshr_miss_rate::.cpu.data     0.025939                       # mshr miss rate for ReadExReq accesses
system.l2.ReadExReq_mshr_miss_rate::total     0.025939                       # mshr miss rate for ReadExReq accesses
system.l2.ReadExReq_avg_mshr_miss_latency::.cpu.data 65605.949470                       # average ReadExReq mshr miss latency
system.l2.ReadExReq_avg_mshr_miss_latency::total 65605.949470                       # average ReadExReq mshr miss latency
system.l2.ReadCleanReq_hits::.cpu.inst            228                       # number of ReadCleanReq hits
system.l2.ReadCleanReq_hits::total                228                       # number of ReadCleanReq hits
system.l2.ReadCleanReq_misses::.cpu.inst         1177                       # number of ReadCleanReq misses
system.l2.ReadCleanReq_misses::total             1177                       # number of ReadCleanReq misses
system.l2.ReadCleanReq_miss_latency::.cpu.inst     89853000                       # number of ReadCleanReq miss cycles
system.l2.ReadCleanReq_miss_latency::total     89853000                       # number of ReadCleanReq miss cycles
system.l2.ReadCleanReq_accesses::.cpu.inst         1405                       # number of ReadCleanReq accesses(hits+misses)
system.l2.ReadCleanReq_accesses::total           1405                       # number of ReadCleanReq accesses(hits+misses)
system.l2.ReadCleanReq_miss_rate::.cpu.inst     0.837722                       # miss rate for ReadCleanReq accesses
system.l2.ReadCleanReq_miss_rate::total      0.837722                       # miss rate for ReadCleanReq accesses
system.l2.ReadCleanReq_avg_miss_latency::.cpu.inst 76340.696686                       # average ReadCleanReq miss latency
system.l2.ReadCleanReq_avg_miss_latency::total 76340.696686                       # average ReadCleanReq miss latency
system.l2.ReadCleanReq_mshr_hits::.cpu.inst            2                       # number of ReadCleanReq MSHR hits
system.l2.ReadCleanReq_mshr_hits::total             2                       # number of ReadCleanReq MSHR hits
system.l2.ReadCleanReq_mshr_misses::.cpu.inst         1175                       # number of ReadCleanReq MSHR misses
system.l2.ReadCleanReq_mshr_misses::total         1175                       # number of ReadCleanReq MSHR misses
system.l2.ReadCleanReq_mshr_miss_latency::.cpu.inst     78007000                       # number of ReadCleanReq MSHR miss cycles
system.l2.ReadCleanReq_mshr_miss_latency::total     78007000                       # number of ReadCleanReq MSHR miss cycles
system.l2.ReadCleanReq_mshr_miss_rate::.cpu.inst     0.836299                       # mshr miss rate for ReadCleanReq accesses
system.l2.ReadCleanReq_mshr_miss_rate::total     0.836299                       # mshr miss rate for ReadCleanReq accesses
system.l2.ReadCleanReq_avg_mshr_miss_latency::.cpu.inst 66388.936170                       # average ReadCleanReq mshr miss latency
system.l2.ReadCleanReq_avg_mshr_miss_latency::total 66388.936170                       # average ReadCleanReq mshr miss latency
system.l2.ReadSharedReq_hits::.cpu.data         25225                       # number of ReadSharedReq hits
system.l2.ReadSharedReq_hits::total             25225                       # number of ReadSharedReq hits
system.l2.ReadSharedReq_misses::.cpu.data          797                       # number of ReadSharedReq misses
system.l2.ReadSharedReq_misses::total             797                       # number of ReadSharedReq misses
system.l2.ReadSharedReq_miss_latency::.cpu.data     62278000                       # number of ReadSharedReq miss cycles
system.l2.ReadSharedReq_miss_latency::total     62278000                       # number of ReadSharedReq miss cycles
system.l2.ReadSharedReq_accesses::.cpu.data        26022                       # number of ReadSharedReq accesses(hits+misses)
system.l2.ReadSharedReq_accesses::total         26022                       # number of ReadSharedReq accesses(hits+misses)
system.l2.ReadSharedReq_miss_rate::.cpu.data     0.030628                       # miss rate for ReadSharedReq accesses
system.l2.ReadSharedReq_miss_rate::total     0.030628                       # miss rate for ReadSharedReq accesses
system.l2.ReadSharedReq_avg_miss_latency::.cpu.data 78140.526976                       # average ReadSharedReq miss latency
system.l2.ReadSharedReq_avg_miss_latency::total 78140.526976                       # average ReadSharedReq miss latency
system.l2.ReadSharedReq_mshr_hits::.cpu.data            5                       # number of ReadSharedReq MSHR hits
system.l2.ReadSharedReq_mshr_hits::total            5                       # number of ReadSharedReq MSHR hits
system.l2.ReadSharedReq_mshr_misses::.cpu.data          792                       # number of ReadSharedReq MSHR misses
system.l2.ReadSharedReq_mshr_misses::total          792                       # number of ReadSharedReq MSHR misses
system.l2.ReadSharedReq_mshr_miss_latency::.cpu.data     54025500                       # number of ReadSharedReq MSHR miss cycles
system.l2.ReadSharedReq_mshr_miss_latency::total     54025500                       # number of ReadSharedReq MSHR miss cycles
system.l2.ReadSharedReq_mshr_miss_rate::.cpu.data     0.030436                       # mshr miss rate for ReadSharedReq accesses
system.l2.ReadSharedReq_mshr_miss_rate::total     0.030436                       # mshr miss rate for ReadSharedReq accesses
system.l2.ReadSharedReq_avg_mshr_miss_latency::.cpu.data 68214.015152                       # average ReadSharedReq mshr miss latency
system.l2.ReadSharedReq_avg_mshr_miss_latency::total 68214.015152                       # average ReadSharedReq mshr miss latency
system.l2.power_state.pwrStateResidencyTicks::UNDEFINED  70095021000                       # Cumulative time (in ticks) in various power states
system.l2.tags.tagsinuse                  5546.705868                       # Cycle average of tags in use
system.l2.tags.total_refs                      335503                       # Total number of references to valid blocks.
system.l2.tags.sampled_refs                      5648                       # Sample count of references to valid blocks.
system.l2.tags.avg_refs                     59.402089                       # Average number of references to valid blocks.
system.l2.tags.warmup_cycle                     77000                       # Cycle when the warmup percentage was hit.
system.l2.tags.occ_blocks::.cpu.inst      1171.620649                       # Average occupied blocks per requestor
system.l2.tags.occ_blocks::.cpu.data      4375.085218                       # Average occupied blocks per requestor
system.l2.tags.occ_percent::.cpu.inst        0.035755                       # Average percentage of cache occupancy
system.l2.tags.occ_percent::.cpu.data        0.133517                       # Average percentage of cache occupancy
system.l2.tags.occ_percent::total            0.169272                       # Average percentage of cache occupancy
system.l2.tags.occ_task_id_blocks::1024          5648                       # Occupied blocks per task id
system.l2.tags.age_task_id_blocks_1024::4         5648                       # Occupied blocks per task id
system.l2.tags.occ_task_id_percent::1024     0.172363                       # Percentage of cache occupancy per task id
system.l2.tags.tag_accesses                   2689728                       # Number of tag accesses
system.l2.tags.data_accesses                  2689728                       # Number of data accesses
system.l2.tags.power_state.pwrStateResidencyTicks::UNDEFINED  70095021000                       # Cumulative time (in ticks) in various power states
system.mem_ctrls.avgPriority_.cpu.inst::samples      1175.00                       # Average QoS priority value for accepted requests
system.mem_ctrls.avgPriority_.cpu.data::samples      4473.00                       # Average QoS priority value for accepted requests
system.mem_ctrls.priorityMinLatency      0.000000018750                       # per QoS priority minimum request to response latency (s)
system.mem_ctrls.priorityMaxLatency      0.000000579500                       # per QoS priority maximum request to response latency (s)
system.mem_ctrls.numReadWriteTurnArounds            0                       # Number of turnarounds from READ to WRITE
system.mem_ctrls.numWriteReadTurnArounds            0                       # Number of turnarounds from WRITE to READ
system.mem_ctrls.numStayReadState               29280                       # Number of times bus staying in READ state
system.mem_ctrls.numStayWriteState                  0                       # Number of times bus staying in WRITE state
system.mem_ctrls.readReqs                        5648                       # Number of read requests accepted
system.mem_ctrls.writeReqs                          0                       # Number of write requests accepted
system.mem_ctrls.readBursts                      5648                       # Number of controller read bursts, including those serviced by the write queue
system.mem_ctrls.writeBursts                        0                       # Number of controller write bursts, including those merged in the write queue
system.mem_ctrls.servicedByWrQ                      0                       # Number of controller read bursts serviced by the write queue
system.mem_ctrls.mergedWrBursts                     0                       # Number of controller write bursts merged with an existing one
system.mem_ctrls.neitherReadNorWriteReqs            0                       # Number of requests that are neither read nor write
system.mem_ctrls.avgRdQLen                       1.00                       # Average read queue length when enqueuing
system.mem_ctrls.avgWrQLen                       0.00                       # Average write queue length when enqueuing
system.mem_ctrls.numRdRetry                         0                       # Number of times read queue was full causing retry
system.mem_ctrls.numWrRetry                         0                       # Number of times write queue was full causing retry
system.mem_ctrls.readPktSize::0                     0                       # Read request sizes (log2)
system.mem_ctrls.readPktSize::1                     0                       # Read request sizes (log2)
system.mem_ctrls.readPktSize::2                     0                       # Read request sizes (log2)
system.mem_ctrls.readPktSize::3                     0                       # Read request sizes (log2)
system.mem_ctrls.readPktSize::4                     0                       # Read request sizes (log2)
system.mem_ctrls.readPktSize::5                     0                       # Read request sizes (log2)
system.mem_ctrls.readPktSize::6                  5648                       # Read request sizes (log2)
system.mem_ctrls.writePktSize::0                    0                       # Write request sizes (log2)
system.mem_ctrls.writePktSize::1                    0                       # Write request sizes (log2)
system.mem_ctrls.writePktSize::2                    0                       # Write request sizes (log2)
system.mem_ctrls.writePktSize::3                    0                       # Write request sizes (log2)
system.mem_ctrls.writePktSize::4                    0                       # Write request sizes (log2)
system.mem_ctrls.writePktSize::5                    0                       # Write request sizes (log2)
system.mem_ctrls.writePktSize::6                    0                       # Write request sizes (log2)
system.mem_ctrls.rdQLenPdf::0                    5205                       # What read queue length does an incoming req see
system.mem_ctrls.rdQLenPdf::1                     415                       # What read queue length does an incoming req see
system.mem_ctrls.rdQLenPdf::2                      26                       # What read queue length does an incoming req see
system.mem_ctrls.rdQLenPdf::3                       2                       # What read queue length does an incoming req see
system.mem_ctrls.rdQLenPdf::4                       0                       # What read queue length does an incoming req see
system.mem_ctrls.rdQLenPdf::5                       0                       # What read queue length does an incoming req see
system.mem_ctrls.rdQLenPdf::6                       0                       # What read queue length does an incoming req see
system.mem_ctrls.rdQLenPdf::7                       0                       # What read queue length does an incoming req see
system.mem_ctrls.rdQLenPdf::8                       0                       # What read queue length does an incoming req see
system.mem_ctrls.rdQLenPdf::9                       0                       # What read queue length does an incoming req see
system.mem_ctrls.rdQLenPdf::10                      0                       # What read queue length does an incoming req see
system.mem_ctrls.rdQLenPdf::11                      0                       # What read queue length does an incoming req see
system.mem_ctrls.rdQLenPdf::12                      0                       # What read queue length does an incoming req see
system.mem_ctrls.rdQLenPdf::13                      0                       # What read queue length does an incoming req see
system.mem_ctrls.rdQLenPdf::14                      0                       # What read queue length does an incoming req see
system.mem_ctrls.rdQLenPdf::15                      0                       # What read queue length does an incoming req see
system.mem_ctrls.rdQLenPdf::16                      0                       # What read queue length does an incoming req see
[...]
system.mem_ctrls.dram.bw_read::.cpu.data      4084056                       # Total read bandwidth from this memory (bytes/s)
system.mem_ctrls.dram.bw_read::total          5156886                       # Total read bandwidth from this memory (bytes/s)
system.mem_ctrls.dram.bw_inst_read::.cpu.inst      1072829                       # Instruction read bandwidth from this memory (bytes/s)
system.mem_ctrls.dram.bw_inst_read::total      1072829                       # Instruction read bandwidth from this memory (bytes/s)
system.mem_ctrls.dram.bw_total::.cpu.inst      1072829                       # Total bandwidth to/from this memory (bytes/s)
system.mem_ctrls.dram.bw_total::.cpu.data      4084056                       # Total bandwidth to/from this memory (bytes/s)
system.mem_ctrls.dram.bw_total::total         5156886                       # Total bandwidth to/from this memory (bytes/s)
system.mem_ctrls.dram.readBursts                 5648                       # Number of DRAM read bursts
system.mem_ctrls.dram.writeBursts                   0                       # Number of DRAM write bursts
system.mem_ctrls.dram.perBankRdBursts::0          420                       # Per bank write bursts
system.mem_ctrls.dram.perBankRdBursts::1          398                       # Per bank write bursts
system.mem_ctrls.dram.perBankRdBursts::2          364                       # Per bank write bursts
system.mem_ctrls.dram.perBankRdBursts::3          335                       # Per bank write bursts
system.mem_ctrls.dram.perBankRdBursts::4          352                       # Per bank write bursts
system.mem_ctrls.dram.perBankRdBursts::5          301                       # Per bank write bursts
system.mem_ctrls.dram.perBankRdBursts::6          376                       # Per bank write bursts
system.mem_ctrls.dram.perBankRdBursts::7          370                       # Per bank write bursts
system.mem_ctrls.dram.perBankRdBursts::8          224                       # Per bank write bursts
system.mem_ctrls.dram.perBankRdBursts::9          330                       # Per bank write bursts
system.mem_ctrls.dram.perBankRdBursts::10          294                       # Per bank write bursts
system.mem_ctrls.dram.perBankRdBursts::11          347                       # Per bank write bursts
system.mem_ctrls.dram.perBankRdBursts::12          372                       # Per bank write bursts
system.mem_ctrls.dram.perBankRdBursts::13          409                       # Per bank write bursts
system.mem_ctrls.dram.perBankRdBursts::14          422                       # Per bank write bursts
system.mem_ctrls.dram.perBankRdBursts::15          334                       # Per bank write bursts
system.mem_ctrls.dram.perBankWrBursts::0            0                       # Per bank write bursts
system.mem_ctrls.dram.perBankWrBursts::1            0                       # Per bank write bursts
system.mem_ctrls.dram.perBankWrBursts::2            0                       # Per bank write bursts
system.mem_ctrls.dram.perBankWrBursts::3            0                       # Per bank write bursts
system.mem_ctrls.dram.perBankWrBursts::4            0                       # Per bank write bursts
system.mem_ctrls.dram.perBankWrBursts::5            0                       # Per bank write bursts
system.mem_ctrls.dram.perBankWrBursts::6            0                       # Per bank write bursts
system.mem_ctrls.dram.perBankWrBursts::7            0                       # Per bank write bursts
system.mem_ctrls.dram.perBankWrBursts::8            0                       # Per bank write bursts
system.mem_ctrls.dram.perBankWrBursts::9            0                       # Per bank write bursts
system.mem_ctrls.dram.perBankWrBursts::10            0                       # Per bank write bursts
system.mem_ctrls.dram.perBankWrBursts::11            0                       # Per bank write bursts
system.mem_ctrls.dram.perBankWrBursts::12            0                       # Per bank write bursts
system.mem_ctrls.dram.perBankWrBursts::13            0                       # Per bank write bursts
system.mem_ctrls.dram.perBankWrBursts::14            0                       # Per bank write bursts
system.mem_ctrls.dram.perBankWrBursts::15            0                       # Per bank write bursts
system.mem_ctrls.dram.totQLat                35745500                       # Total ticks spent queuing
system.mem_ctrls.dram.totBusLat              28240000                       # Total ticks spent in databus transfers
system.mem_ctrls.dram.totMemAccLat          141645500                       # Total ticks spent from burst creation until serviced by the DRAM
system.mem_ctrls.dram.avgQLat                 6328.88                       # Average queueing delay per DRAM burst
system.mem_ctrls.dram.avgBusLat               5000.00                       # Average bus latency per DRAM burst
system.mem_ctrls.dram.avgMemAccLat           25078.88                       # Average memory access latency per DRAM burst
system.mem_ctrls.dram.readRowHits                4767                       # Number of row buffer hits during reads
system.mem_ctrls.dram.writeRowHits                  0                       # Number of row buffer hits during writes
system.mem_ctrls.dram.readRowHitRate            84.40                       # Row buffer hit rate for reads
system.mem_ctrls.dram.writeRowHitRate             nan                       # Row buffer hit rate for writes
system.mem_ctrls.dram.bytesPerActivate::samples          881                       # Bytes accessed per row activation
system.mem_ctrls.dram.bytesPerActivate::mean   410.297389                       # Bytes accessed per row activation
system.mem_ctrls.dram.bytesPerActivate::gmean   266.479220                       # Bytes accessed per row activation
system.mem_ctrls.dram.bytesPerActivate::stdev   345.683865                       # Bytes accessed per row activation
system.mem_ctrls.dram.bytesPerActivate::0-127          190     21.57%     21.57% # Bytes accessed per row activation
system.mem_ctrls.dram.bytesPerActivate::128-255          210     23.84%     45.40% # Bytes accessed per row activation
system.mem_ctrls.dram.bytesPerActivate::256-383           91     10.33%     55.73% # Bytes accessed per row activation
system.mem_ctrls.dram.bytesPerActivate::384-511          114     12.94%     68.67% # Bytes accessed per row activation
system.mem_ctrls.dram.bytesPerActivate::512-639           36      4.09%     72.76% # Bytes accessed per row activation
system.mem_ctrls.dram.bytesPerActivate::640-767           27      3.06%     75.82% # Bytes accessed per row activation
system.mem_ctrls.dram.bytesPerActivate::768-895           31      3.52%     79.34% # Bytes accessed per row activation
system.mem_ctrls.dram.bytesPerActivate::896-1023           66      7.49%     86.83% # Bytes accessed per row activation
system.mem_ctrls.dram.bytesPerActivate::1024-1151          116     13.17%    100.00% # Bytes accessed per row activation
system.mem_ctrls.dram.bytesPerActivate::total          881                       # Bytes accessed per row activation
system.mem_ctrls.dram.bytesRead                361472                       # Total number of bytes read from DRAM
system.mem_ctrls.dram.bytesWritten                  0                       # Total number of bytes written to DRAM
system.mem_ctrls.dram.avgRdBW                5.156886                       # Average DRAM read bandwidth in MiBytes/s
system.mem_ctrls.dram.avgWrBW                       0                       # Average DRAM write bandwidth in MiBytes/s
system.mem_ctrls.dram.peakBW                 12800.00                       # Theoretical peak bandwidth in MiByte/s
system.mem_ctrls.dram.busUtil                    0.04                       # Data bus utilization in percentage
system.mem_ctrls.dram.busUtilRead                0.04                       # Data bus utilization in percentage for reads
system.mem_ctrls.dram.busUtilWrite               0.00                       # Data bus utilization in percentage for writes
system.mem_ctrls.dram.pageHitRate               84.40                       # Row buffer hit rate, read and write combined
system.mem_ctrls.dram.power_state.pwrStateResidencyTicks::UNDEFINED  70095021000                       # Cumulative time (in ticks) in various power states
system.mem_ctrls.dram.rank0.actEnergy         3505740                       # Energy for activate commands per rank (pJ)
system.mem_ctrls.dram.rank0.preEnergy         1863345                       # Energy for precharge commands per rank (pJ)
system.mem_ctrls.dram.rank0.readEnergy       20820240                       # Energy for read commands per rank (pJ)
system.mem_ctrls.dram.rank0.writeEnergy             0                       # Energy for write commands per rank (pJ)
system.mem_ctrls.dram.rank0.refreshEnergy 5532989280.000001                       # Energy for refresh commands per rank (pJ)
system.mem_ctrls.dram.rank0.actBackEnergy   1544397330                       # Energy for active background per rank (pJ)
system.mem_ctrls.dram.rank0.preBackEnergy  25615943040                       # Energy for precharge background per rank (pJ)
system.mem_ctrls.dram.rank0.actPowerDownEnergy            0                       # Energy for active power-down per rank (pJ)
system.mem_ctrls.dram.rank0.prePowerDownEnergy            0                       # Energy for precharge power-down per rank (pJ)
system.mem_ctrls.dram.rank0.selfRefreshEnergy            0                       # Energy for self refresh per rank (pJ)
system.mem_ctrls.dram.rank0.totalEnergy   32719518975                       # Total energy per rank (pJ)
system.mem_ctrls.dram.rank0.averagePower   466.788062                       # Core power per rank (mW)
system.mem_ctrls.dram.rank0.totalIdleTime            0                       # Total Idle time Per DRAM Rank
system.mem_ctrls.dram.rank0.pwrStateTime::IDLE  66581214500                       # Time in different power states
system.mem_ctrls.dram.rank0.pwrStateTime::REF   2340520000                       # Time in different power states
system.mem_ctrls.dram.rank0.pwrStateTime::SREF            0                       # Time in different power states
system.mem_ctrls.dram.rank0.pwrStateTime::PRE_PDN            0                       # Time in different power states
system.mem_ctrls.dram.rank0.pwrStateTime::ACT   1173286500                       # Time in different power states
system.mem_ctrls.dram.rank0.pwrStateTime::ACT_PDN            0                       # Time in different power states
system.mem_ctrls.dram.rank1.actEnergy         2784600                       # Energy for activate commands per rank (pJ)
system.mem_ctrls.dram.rank1.preEnergy         1480050                       # Energy for precharge commands per rank (pJ)
system.mem_ctrls.dram.rank1.readEnergy       19506480                       # Energy for read commands per rank (pJ)
system.mem_ctrls.dram.rank1.writeEnergy             0                       # Energy for write commands per rank (pJ)
system.mem_ctrls.dram.rank1.refreshEnergy 5532989280.000001                       # Energy for refresh commands per rank (pJ)
system.mem_ctrls.dram.rank1.actBackEnergy   1450567350                       # Energy for active background per rank (pJ)
system.mem_ctrls.dram.rank1.preBackEnergy  25694957760                       # Energy for precharge background per rank (pJ)
system.mem_ctrls.dram.rank1.actPowerDownEnergy            0                       # Energy for active power-down per rank (pJ)
system.mem_ctrls.dram.rank1.prePowerDownEnergy            0                       # Energy for precharge power-down per rank (pJ)
system.mem_ctrls.dram.rank1.selfRefreshEnergy            0                       # Energy for self refresh per rank (pJ)
system.mem_ctrls.dram.rank1.totalEnergy   32702285520                       # Total energy per rank (pJ)
system.mem_ctrls.dram.rank1.averagePower   466.542203                       # Core power per rank (mW)
system.mem_ctrls.dram.rank1.totalIdleTime            0                       # Total Idle time Per DRAM Rank
system.mem_ctrls.dram.rank1.pwrStateTime::IDLE  66787581500                       # Time in different power states
system.mem_ctrls.dram.rank1.pwrStateTime::REF   2340520000                       # Time in different power states
system.mem_ctrls.dram.rank1.pwrStateTime::SREF            0                       # Time in different power states
system.mem_ctrls.dram.rank1.pwrStateTime::PRE_PDN            0                       # Time in different power states
system.mem_ctrls.dram.rank1.pwrStateTime::ACT    966919500                       # Time in different power states
system.mem_ctrls.dram.rank1.pwrStateTime::ACT_PDN            0                       # Time in different power states
system.mem_ctrls.power_state.pwrStateResidencyTicks::UNDEFINED  70095021000                       # Cumulative time (in ticks) in various power states
system.membus.trans_dist::ReadResp               1967                       # Transaction distribution
system.membus.trans_dist::ReadExReq              3681                       # Transaction distribution
system.membus.trans_dist::ReadExResp             3681                       # Transaction distribution
system.membus.trans_dist::ReadSharedReq          1967                       # Transaction distribution
system.membus.pkt_count_system.l2.mem_side_port::system.mem_ctrls.port        11296                       # Packet count per connected requestor and responder (bytes)
system.membus.pkt_count::total                  11296                       # Packet count per connected requestor and responder (bytes)
system.membus.pkt_size_system.l2.mem_side_port::system.mem_ctrls.port       361472                       # Cumulative packet size per connected requestor and responder (bytes)
system.membus.pkt_size::total                  361472                       # Cumulative packet size per connected requestor and responder (bytes)
system.membus.snoops                                0                       # Total snoops (count)
system.membus.snoopTraffic                          0                       # Total snoop traffic (bytes)
system.membus.snoop_fanout::samples              5648                       # Request fanout histogram
system.membus.snoop_fanout::mean                    0                       # Request fanout histogram
system.membus.snoop_fanout::stdev                   0                       # Request fanout histogram
system.membus.snoop_fanout::underflows              0      0.00%      0.00% # Request fanout histogram
system.membus.snoop_fanout::0                    5648    100.00%    100.00% # Request fanout histogram
system.membus.snoop_fanout::1                       0      0.00%    100.00% # Request fanout histogram
system.membus.snoop_fanout::overflows               0      0.00%    100.00% # Request fanout histogram
system.membus.snoop_fanout::min_value               0                       # Request fanout histogram
system.membus.snoop_fanout::max_value               0                       # Request fanout histogram
system.membus.snoop_fanout::total                5648                       # Request fanout histogram
system.membus.power_state.pwrStateResidencyTicks::UNDEFINED  70095021000                       # Cumulative time (in ticks) in various power states
system.membus.reqLayer0.occupancy             6965500                       # Layer occupancy (ticks)
system.membus.reqLayer0.utilization               0.0                       # Layer utilization (%)
system.membus.respLayer1.occupancy           29896500                       # Layer occupancy (ticks)
system.membus.respLayer1.utilization              0.0                       # Layer utilization (%)
system.tol2bus.trans_dist::ReadResp             27427                       # Transaction distribution
system.tol2bus.trans_dist::WritebackDirty       163623                       # Transaction distribution
system.tol2bus.trans_dist::WritebackClean          893                       # Transaction distribution
system.tol2bus.trans_dist::CleanEvict            3287                       # Transaction distribution
system.tol2bus.trans_dist::ReadExReq           141912                       # Transaction distribution
system.tol2bus.trans_dist::ReadExResp          141912                       # Transaction distribution
system.tol2bus.trans_dist::ReadCleanReq          1405                       # Transaction distribution
system.tol2bus.trans_dist::ReadSharedReq        26022                       # Transaction distribution
system.tol2bus.pkt_count_system.cpu.icache.mem_side_port::system.l2.cpu_side_port         3703                       # Packet count per connected requestor and responder (bytes)
system.tol2bus.pkt_count_system.cpu.dcache.mem_side_port::system.l2.cpu_side_port       502778                       # Packet count per connected requestor and responder (bytes)
system.tol2bus.pkt_count::total                506481                       # Packet count per connected requestor and responder (bytes)
system.tol2bus.pkt_size_system.cpu.icache.mem_side_port::system.l2.cpu_side_port       147072                       # Cumulative packet size per connected requestor and responder (bytes)
system.tol2bus.pkt_size_system.cpu.dcache.mem_side_port::system.l2.cpu_side_port     21219648                       # Cumulative packet size per connected requestor and responder (bytes)
system.tol2bus.pkt_size::total               21366720                       # Cumulative packet size per connected requestor and responder (bytes)
system.tol2bus.snoops                               0                       # Total snoops (count)
system.tol2bus.snoopTraffic                         0                       # Total snoop traffic (bytes)
system.tol2bus.snoop_fanout::samples           169339                       # Request fanout histogram
system.tol2bus.snoop_fanout::mean            0.009691                       # Request fanout histogram
system.tol2bus.snoop_fanout::stdev           0.097963                       # Request fanout histogram
system.tol2bus.snoop_fanout::underflows             0      0.00%      0.00% # Request fanout histogram
system.tol2bus.snoop_fanout::0                 167698     99.03%     99.03% # Request fanout histogram
system.tol2bus.snoop_fanout::1                   1641      0.97%    100.00% # Request fanout histogram
system.tol2bus.snoop_fanout::2                      0      0.00%    100.00% # Request fanout histogram
system.tol2bus.snoop_fanout::overflows              0      0.00%    100.00% # Request fanout histogram
system.tol2bus.snoop_fanout::min_value              0                       # Request fanout histogram
system.tol2bus.snoop_fanout::max_value              1                       # Request fanout histogram
system.tol2bus.snoop_fanout::total             169339                       # Request fanout histogram
system.tol2bus.power_state.pwrStateResidencyTicks::UNDEFINED  70095021000                       # Cumulative time (in ticks) in various power states
system.tol2bus.reqLayer0.occupancy          333087000                       # Layer occupancy (ticks)
system.tol2bus.reqLayer0.utilization              0.5                       # Layer utilization (%)
system.tol2bus.respLayer0.occupancy           2108498                       # Layer occupancy (ticks)
system.tol2bus.respLayer0.utilization             0.0                       # Layer utilization (%)
system.tol2bus.respLayer1.occupancy         251903495                       # Layer occupancy (ticks)
system.tol2bus.respLayer1.utilization             0.4                       # Layer utilization (%)
system.voltage_domain.voltage                       1                       # Voltage in Volts

---------- End Simulation Statistics   ----------
