
---------- Begin Simulation Statistics ----------
final_tick                               490238920500                       # Number of ticks from beginning of simulation (restored from checkpoints and never reset)
host_inst_rate                                 310005                       # Simulator instruction rate (inst/s)
host_mem_usage                                 694964                       # Number of bytes of host memory used
host_op_rate                                   310016                       # Simulator op (including micro ops) rate (op/s)
host_seconds                                   322.58                       # Real time elapsed on the host
host_tick_rate                             1519764486                       # Simulator tick rate (ticks/s)
sim_freq                                 1000000000000                       # Frequency of simulated ticks
sim_insts                                   100000000                       # Number of instructions simulated
sim_ops                                     100003630                       # Number of ops (including micro ops) simulated
sim_seconds                                  0.490239                       # Number of seconds simulated
sim_ticks                                490238920500                       # Number of ticks simulated
system.cpu.committedInsts                   100000000                       # Number of instructions committed
system.cpu.committedOps                     100003630                       # Number of ops (including micro ops) committed
system.cpu.cpi                               9.804778                       # CPI: cycles per instruction
system.cpu.discardedOps                         20890                       # Number of ops (including micro ops) which were discarded before commit
system.cpu.idleCycles                       849607769                       # Total number of cycles that the object has spent stopped
system.cpu.ipc                               0.101991                       # IPC: instructions per cycle
system.cpu.numCycles                        980477841                       # number of cpu cycles simulated
system.cpu.numFetchSuspends                         0                       # Number of times Execute suspended instruction fetching
system.cpu.numWorkItemsCompleted                    0                       # number of work items this cpu completed
system.cpu.numWorkItemsStarted                      0                       # number of work items this cpu started
system.cpu.op_class_0::No_OpClass                   0      0.00%      0.00% # Class of committed instruction
system.cpu.op_class_0::IntAlu                49995350     49.99%     49.99% # Class of committed instruction
system.cpu.op_class_0::IntMult                     88      0.00%     49.99% # Class of committed instruction
system.cpu.op_class_0::IntDiv                       0      0.00%     49.99% # Class of committed instruction
system.cpu.op_class_0::FloatAdd                     0      0.00%     49.99% # Class of committed instruction
system.cpu.op_class_0::FloatCmp                     0      0.00%     49.99% # Class of committed instruction
system.cpu.op_class_0::FloatCvt                     0      0.00%     49.99% # Class of committed instruction
system.cpu.op_class_0::FloatMult                    0      0.00%     49.99% # Class of committed instruction
system.cpu.op_class_0::FloatMultAcc                 0      0.00%     49.99% # Class of committed instruction
system.cpu.op_class_0::FloatDiv                     0      0.00%     49.99% # Class of committed instruction
system.cpu.op_class_0::FloatMisc                    0      0.00%     49.99% # Class of committed instruction
system.cpu.op_class_0::FloatSqrt                    0      0.00%     49.99% # Class of committed instruction
system.cpu.op_class_0::SimdAdd                      0      0.00%     49.99% # Class of committed instruction
system.cpu.op_class_0::SimdAddAcc                   0      0.00%     49.99% # Class of committed instruction
system.cpu.op_class_0::SimdAlu                      0      0.00%     49.99% # Class of committed instruction
system.cpu.op_class_0::SimdCmp                      0      0.00%     49.99% # Class of committed instruction
system.cpu.op_class_0::SimdCvt                      0      0.00%     49.99% # Class of committed instruction
system.cpu.op_class_0::SimdMisc                     0      0.00%     49.99% # Class of committed instruction
system.cpu.op_class_0::SimdMult                     0      0.00%     49.99% # Class of committed instruction
system.cpu.op_class_0::SimdMultAcc                  0      0.00%     49.99% # Class of committed instruction
system.cpu.op_class_0::SimdShift                    0      0.00%     49.99% # Class of committed instruction
system.cpu.op_class_0::SimdShiftAcc                 0      0.00%     49.99% # Class of committed instruction
system.cpu.op_class_0::SimdDiv                      0      0.00%     49.99% # Class of committed instruction
system.cpu.op_class_0::SimdSqrt                     0      0.00%     49.99% # Class of committed instruction
system.cpu.op_class_0::SimdFloatAdd                 0      0.00%     49.99% # Class of committed instruction
system.cpu.op_class_0::SimdFloatAlu                 0      0.00%     49.99% # Class of committed instruction
system.cpu.op_class_0::SimdFloatCmp                 2      0.00%     49.99% # Class of committed instruction
system.cpu.op_class_0::SimdFloatCvt                 0      0.00%     49.99% # Class of committed instruction
system.cpu.op_class_0::SimdFloatDiv                 0      0.00%     49.99% # Class of committed instruction
system.cpu.op_class_0::SimdFloatMisc               22      0.00%     49.99% # Class of committed instruction
system.cpu.op_class_0::SimdFloatMult                0      0.00%     49.99% # Class of committed instruction
system.cpu.op_class_0::SimdFloatMultAcc             0      0.00%     49.99% # Class of committed instruction
system.cpu.op_class_0::SimdFloatSqrt                0      0.00%     49.99% # Class of committed instruction
system.cpu.op_class_0::SimdReduceAdd                0      0.00%     49.99% # Class of committed instruction
system.cpu.op_class_0::SimdReduceAlu                0      0.00%     49.99% # Class of committed instruction
system.cpu.op_class_0::SimdReduceCmp                0      0.00%     49.99% # Class of committed instruction
system.cpu.op_class_0::SimdFloatReduceAdd            0      0.00%     49.99% # Class of committed instruction
system.cpu.op_class_0::SimdFloatReduceCmp            0      0.00%     49.99% # Class of committed instruction
system.cpu.op_class_0::SimdAes                      0      0.00%     49.99% # Class of committed instruction
system.cpu.op_class_0::SimdAesMix                   0      0.00%     49.99% # Class of committed instruction
system.cpu.op_class_0::SimdSha1Hash                 0      0.00%     49.99% # Class of committed instruction
system.cpu.op_class_0::SimdSha1Hash2                0      0.00%     49.99% # Class of committed instruction
system.cpu.op_class_0::SimdSha256Hash               0      0.00%     49.99% # Class of committed instruction
system.cpu.op_class_0::SimdSha256Hash2              0      0.00%     49.99% # Class of committed instruction
system.cpu.op_class_0::SimdShaSigma2                0      0.00%     49.99% # Class of committed instruction
system.cpu.op_class_0::SimdShaSigma3                0      0.00%     49.99% # Class of committed instruction
system.cpu.op_class_0::SimdPredAlu                  0      0.00%     49.99% # Class of committed instruction
system.cpu.op_class_0::MemRead               36892285     36.89%     86.88% # Class of committed instruction
system.cpu.op_class_0::MemWrite              13115883     13.12%    100.00% # Class of committed instruction
system.cpu.op_class_0::FloatMemRead                 0      0.00%    100.00% # Class of committed instruction
system.cpu.op_class_0::FloatMemWrite                0      0.00%    100.00% # Class of committed instruction
system.cpu.op_class_0::IprAccess                    0      0.00%    100.00% # Class of committed instruction
system.cpu.op_class_0::InstPrefetch                 0      0.00%    100.00% # Class of committed instruction
system.cpu.op_class_0::total                100003630                       # Class of committed instruction
system.cpu.tickCycles                       130870072                       # Number of cycles that the object actually ticked
system.cpu.workload.numSyscalls                    19                       # Number of system calls
system.membus.snoop_filter.hit_multi_requests            0                       # Number of requests hitting in the snoop filter with multiple (>1) holders of the requested data.
system.membus.snoop_filter.hit_multi_snoops            0                       # Number of snoops hitting in the snoop filter with multiple (>1) holders of the requested data.
system.membus.snoop_filter.hit_single_requests      5819332                       # Number of requests hitting in the snoop filter with a single holder of the requested data.
system.membus.snoop_filter.hit_single_snoops            0                       # Number of snoops hitting in the snoop filter with a single holder of the requested data.
system.membus.snoop_filter.tot_requests      11770744                       # Total number of requests made to the snoop filter.
system.membus.snoop_filter.tot_snoops               0                       # Total number of snoops made to the snoop filter.
system.tol2bus.snoop_filter.hit_multi_requests           24                       # Number of requests hitting in the snoop filter with multiple (>1) holders of the requested data.
system.tol2bus.snoop_filter.hit_multi_snoops            1                       # Number of snoops hitting in the snoop filter with multiple (>1) holders of the requested data.
system.tol2bus.snoop_filter.hit_single_requests      5946367                       # Number of requests hitting in the snoop filter with a single holder of the requested data.
system.tol2bus.snoop_filter.hit_single_snoops         1007                       # Number of snoops hitting in the snoop filter with a single holder of the requested data.
system.tol2bus.snoop_filter.tot_requests     11897835                       # Total number of requests made to the snoop filter.
system.tol2bus.snoop_filter.tot_snoops           1008                       # Total number of snoops made to the snoop filter.
system.clk_domain.clock                          1000                       # Clock period in ticks
system.cpu.branchPred.lookups                  605722                       # Number of BP lookups
system.cpu.branchPred.condPredicted            603983                       # Number of conditional branches predicted
system.cpu.branchPred.condIncorrect               822                       # Number of conditional branches incorrect
system.cpu.branchPred.BTBLookups               602108                       # Number of BTB lookups
system.cpu.branchPred.BTBHits                  601397                       # Number of BTB hits
system.cpu.branchPred.BTBHitPct             99.881915                       # BTB Hit Percentage
system.cpu.branchPred.RASUsed                     500                       # Number of times the RAS was used to get a target.
system.cpu.branchPred.RASIncorrect                  1                       # Number of incorrect RAS predictions.
system.cpu.branchPred.indirectLookups             344                       # Number of indirect predictor lookups.
system.cpu.branchPred.indirectHits                173                       # Number of indirect target hits.
system.cpu.branchPred.indirectMisses              171                       # Number of indirect misses.
system.cpu.branchPred.indirectMispredicted          103                       # Number of mispredicted indirect branches.
system.cpu.dcache.demand_hits::.cpu.data     36895396                       # number of demand (read+write) hits
system.cpu.dcache.demand_hits::total         36895396                       # number of demand (read+write) hits
system.cpu.dcache.overall_hits::.cpu.data     36895420                       # number of overall hits
system.cpu.dcache.overall_hits::total        36895420                       # number of overall hits
system.cpu.dcache.demand_misses::.cpu.data     11900049                       # number of demand (read+write) misses
system.cpu.dcache.demand_misses::total       11900049                       # number of demand (read+write) misses
system.cpu.dcache.overall_misses::.cpu.data     11900077                       # number of overall misses
system.cpu.dcache.overall_misses::total      11900077                       # number of overall misses
system.cpu.dcache.demand_miss_latency::.cpu.data 888723768000                       # number of demand (read+write) miss cycles
system.cpu.dcache.demand_miss_latency::total 888723768000                       # number of demand (read+write) miss cycles
system.cpu.dcache.overall_miss_latency::.cpu.data 888723768000                       # number of overall miss cycles
system.cpu.dcache.overall_miss_latency::total 888723768000                       # number of overall miss cycles
system.cpu.dcache.demand_accesses::.cpu.data     48795445                       # number of demand (read+write) accesses
system.cpu.dcache.demand_accesses::total     48795445                       # number of demand (read+write) accesses
system.cpu.dcache.overall_accesses::.cpu.data     48795497                       # number of overall (read+write) accesses
system.cpu.dcache.overall_accesses::total     48795497                       # number of overall (read+write) accesses
system.cpu.dcache.demand_miss_rate::.cpu.data     0.243876                       # miss rate for demand accesses
system.cpu.dcache.demand_miss_rate::total     0.243876                       # miss rate for demand accesses
system.cpu.dcache.overall_miss_rate::.cpu.data     0.243877                       # miss rate for overall accesses
system.cpu.dcache.overall_miss_rate::total     0.243877                       # miss rate for overall accesses
system.cpu.dcache.demand_avg_miss_latency::.cpu.data 74682.362064                       # average overall miss latency
system.cpu.dcache.demand_avg_miss_latency::total 74682.362064                       # average overall miss latency
system.cpu.dcache.overall_avg_miss_latency::.cpu.data 74682.186342                       # average overall miss latency
system.cpu.dcache.overall_avg_miss_latency::total 74682.186342                       # average overall miss latency
system.cpu.dcache.blocked_cycles::no_mshrs           92                       # number of cycles access was blocked
system.cpu.dcache.blocked_cycles::no_targets            0                       # number of cycles access was blocked
system.cpu.dcache.blocked::no_mshrs                 1                       # number of cycles access was blocked
system.cpu.dcache.blocked::no_targets               0                       # number of cycles access was blocked
system.cpu.dcache.avg_blocked_cycles::no_mshrs           92                       # average number of cycles each access was blocked
system.cpu.dcache.avg_blocked_cycles::no_targets          nan                       # average number of cycles each access was blocked
system.cpu.dcache.writebacks::.writebacks      5945898                       # number of writebacks
system.cpu.dcache.writebacks::total           5945898                       # number of writebacks
system.cpu.dcache.demand_mshr_hits::.cpu.data      5949870                       # number of demand (read+write) MSHR hits
system.cpu.dcache.demand_mshr_hits::total      5949870                       # number of demand (read+write) MSHR hits
system.cpu.dcache.overall_mshr_hits::.cpu.data      5949870                       # number of overall MSHR hits
system.cpu.dcache.overall_mshr_hits::total      5949870                       # number of overall MSHR hits
system.cpu.dcache.demand_mshr_misses::.cpu.data      5950179                       # number of demand (read+write) MSHR misses
system.cpu.dcache.demand_mshr_misses::total      5950179                       # number of demand (read+write) MSHR misses
system.cpu.dcache.overall_mshr_misses::.cpu.data      5950207                       # number of overall MSHR misses
system.cpu.dcache.overall_mshr_misses::total      5950207                       # number of overall MSHR misses
system.cpu.dcache.demand_mshr_miss_latency::.cpu.data 454351442500                       # number of demand (read+write) MSHR miss cycles
system.cpu.dcache.demand_mshr_miss_latency::total 454351442500                       # number of demand (read+write) MSHR miss cycles
system.cpu.dcache.overall_mshr_miss_latency::.cpu.data 454353654500                       # number of overall MSHR miss cycles
system.cpu.dcache.overall_mshr_miss_latency::total 454353654500                       # number of overall MSHR miss cycles
system.cpu.dcache.demand_mshr_miss_rate::.cpu.data     0.121941                       # mshr miss rate for demand accesses
system.cpu.dcache.demand_mshr_miss_rate::total     0.121941                       # mshr miss rate for demand accesses
system.cpu.dcache.overall_mshr_miss_rate::.cpu.data     0.121942                       # mshr miss rate for overall accesses
system.cpu.dcache.overall_mshr_miss_rate::total     0.121942                       # mshr miss rate for overall accesses
system.cpu.dcache.demand_avg_mshr_miss_latency::.cpu.data 76359.289779                       # average overall mshr miss latency
system.cpu.dcache.demand_avg_mshr_miss_latency::total 76359.289779                       # average overall mshr miss latency
system.cpu.dcache.overall_avg_mshr_miss_latency::.cpu.data 76359.302206                       # average overall mshr miss latency
system.cpu.dcache.overall_avg_mshr_miss_latency::total 76359.302206                       # average overall mshr miss latency
system.cpu.dcache.replacements                5946112                       # number of replacements
system.cpu.dcache.ReadReq_hits::.cpu.data     35702601                       # number of ReadReq hits
system.cpu.dcache.ReadReq_hits::total        35702601                       # number of ReadReq hits
system.cpu.dcache.ReadReq_misses::.cpu.data          231                       # number of ReadReq misses
system.cpu.dcache.ReadReq_misses::total           231                       # number of ReadReq misses
system.cpu.dcache.ReadReq_miss_latency::.cpu.data     18341500                       # number of ReadReq miss cycles
system.cpu.dcache.ReadReq_miss_latency::total     18341500                       # number of ReadReq miss cycles
system.cpu.dcache.ReadReq_accesses::.cpu.data     35702832                       # number of ReadReq accesses(hits+misses)
system.cpu.dcache.ReadReq_accesses::total     35702832                       # number of ReadReq accesses(hits+misses)
system.cpu.dcache.ReadReq_miss_rate::.cpu.data     0.000006                       # miss rate for ReadReq accesses
system.cpu.dcache.ReadReq_miss_rate::total     0.000006                       # miss rate for ReadReq accesses
system.cpu.dcache.ReadReq_avg_miss_latency::.cpu.data 79400.432900                       # average ReadReq miss latency
system.cpu.dcache.ReadReq_avg_miss_latency::total 79400.432900                       # average ReadReq miss latency
system.cpu.dcache.ReadReq_mshr_hits::.cpu.data            8                       # number of ReadReq MSHR hits
system.cpu.dcache.ReadReq_mshr_hits::total            8                       # number of ReadReq MSHR hits
system.cpu.dcache.ReadReq_mshr_misses::.cpu.data          223                       # number of ReadReq MSHR misses
system.cpu.dcache.ReadReq_mshr_misses::total          223                       # number of ReadReq MSHR misses
system.cpu.dcache.ReadReq_mshr_miss_latency::.cpu.data     17547500                       # number of ReadReq MSHR miss cycles
system.cpu.dcache.ReadReq_mshr_miss_latency::total     17547500                       # number of ReadReq MSHR miss cycles
system.cpu.dcache.ReadReq_mshr_miss_rate::.cpu.data     0.000006                       # mshr miss rate for ReadReq accesses
system.cpu.dcache.ReadReq_mshr_miss_rate::total     0.000006                       # mshr miss rate for ReadReq accesses
system.cpu.dcache.ReadReq_avg_mshr_miss_latency::.cpu.data 78688.340807                       # average ReadReq mshr miss latency
system.cpu.dcache.ReadReq_avg_mshr_miss_latency::total 78688.340807                       # average ReadReq mshr miss latency
system.cpu.dcache.WriteReq_hits::.cpu.data      1192795                       # number of WriteReq hits
system.cpu.dcache.WriteReq_hits::total        1192795                       # number of WriteReq hits
system.cpu.dcache.WriteReq_misses::.cpu.data     11899818                       # number of WriteReq misses
system.cpu.dcache.WriteReq_misses::total     11899818                       # number of WriteReq misses
system.cpu.dcache.WriteReq_miss_latency::.cpu.data 888705426500                       # number of WriteReq miss cycles
system.cpu.dcache.WriteReq_miss_latency::total 888705426500                       # number of WriteReq miss cycles
system.cpu.dcache.WriteReq_accesses::.cpu.data     13092613                       # number of WriteReq accesses(hits+misses)
system.cpu.dcache.WriteReq_accesses::total     13092613                       # number of WriteReq accesses(hits+misses)
system.cpu.dcache.WriteReq_miss_rate::.cpu.data     0.908896                       # miss rate for WriteReq accesses
system.cpu.dcache.WriteReq_miss_rate::total     0.908896                       # miss rate for WriteReq accesses
system.cpu.dcache.WriteReq_avg_miss_latency::.cpu.data 74682.270477                       # average WriteReq miss latency
system.cpu.dcache.WriteReq_avg_miss_latency::total 74682.270477                       # average WriteReq miss latency
system.cpu.dcache.WriteReq_mshr_hits::.cpu.data      5949862                       # number of WriteReq MSHR hits
system.cpu.dcache.WriteReq_mshr_hits::total      5949862                       # number of WriteReq MSHR hits
system.cpu.dcache.WriteReq_mshr_misses::.cpu.data      5949956                       # number of WriteReq MSHR misses
system.cpu.dcache.WriteReq_mshr_misses::total      5949956                       # number of WriteReq MSHR misses
system.cpu.dcache.WriteReq_mshr_miss_latency::.cpu.data 454333895000                       # number of WriteReq MSHR miss cycles
system.cpu.dcache.WriteReq_mshr_miss_latency::total 454333895000                       # number of WriteReq MSHR miss cycles
system.cpu.dcache.WriteReq_mshr_miss_rate::.cpu.data     0.454451                       # mshr miss rate for WriteReq accesses
system.cpu.dcache.WriteReq_mshr_miss_rate::total     0.454451                       # mshr miss rate for WriteReq accesses
system.cpu.dcache.WriteReq_avg_mshr_miss_latency::.cpu.data 76359.202488                       # average WriteReq mshr miss latency
system.cpu.dcache.WriteReq_avg_mshr_miss_latency::total 76359.202488                       # average WriteReq mshr miss latency
system.cpu.dcache.SoftPFReq_hits::.cpu.data           24                       # number of SoftPFReq hits
system.cpu.dcache.SoftPFReq_hits::total            24                       # number of SoftPFReq hits
system.cpu.dcache.SoftPFReq_misses::.cpu.data           28                       # number of SoftPFReq misses
system.cpu.dcache.SoftPFReq_misses::total           28                       # number of SoftPFReq misses
system.cpu.dcache.SoftPFReq_accesses::.cpu.data           52                       # number of SoftPFReq accesses(hits+misses)
system.cpu.dcache.SoftPFReq_accesses::total           52                       # number of SoftPFReq accesses(hits+misses)
system.cpu.dcache.SoftPFReq_miss_rate::.cpu.data     0.538462                       # miss rate for SoftPFReq accesses
system.cpu.dcache.SoftPFReq_miss_rate::total     0.538462                       # miss rate for SoftPFReq accesses
system.cpu.dcache.SoftPFReq_mshr_misses::.cpu.data           28                       # number of SoftPFReq MSHR misses
system.cpu.dcache.SoftPFReq_mshr_misses::total           28                       # number of SoftPFReq MSHR misses
system.cpu.dcache.SoftPFReq_mshr_miss_latency::.cpu.data      2212000                       # number of SoftPFReq MSHR miss cycles
system.cpu.dcache.SoftPFReq_mshr_miss_latency::total      2212000                       # number of SoftPFReq MSHR miss cycles
system.cpu.dcache.SoftPFReq_mshr_miss_rate::.cpu.data     0.538462                       # mshr miss rate for SoftPFReq accesses
system.cpu.dcache.SoftPFReq_mshr_miss_rate::total     0.538462                       # mshr miss rate for SoftPFReq accesses
system.cpu.dcache.SoftPFReq_avg_mshr_miss_latency::.cpu.data        79000                       # average SoftPFReq mshr miss latency
system.cpu.dcache.SoftPFReq_avg_mshr_miss_latency::total        79000                       # average SoftPFReq mshr miss latency
system.cpu.dcache.LoadLockedReq_hits::.cpu.data           12                       # number of LoadLockedReq hits
system.cpu.dcache.LoadLockedReq_hits::total           12                       # number of LoadLockedReq hits
system.cpu.dcache.LoadLockedReq_misses::.cpu.data            2                       # number of LoadLockedReq misses
system.cpu.dcache.LoadLockedReq_misses::total            2                       # number of LoadLockedReq misses
system.cpu.dcache.LoadLockedReq_miss_latency::.cpu.data       147000                       # number of LoadLockedReq miss cycles
system.cpu.dcache.LoadLockedReq_miss_latency::total       147000                       # number of LoadLockedReq miss cycles
system.cpu.dcache.LoadLockedReq_accesses::.cpu.data           14                       # number of LoadLockedReq accesses(hits+misses)
system.cpu.dcache.LoadLockedReq_accesses::total           14                       # number of LoadLockedReq accesses(hits+misses)
system.cpu.dcache.LoadLockedReq_miss_rate::.cpu.data     0.142857                       # miss rate for LoadLockedReq accesses
system.cpu.dcache.LoadLockedReq_miss_rate::total     0.142857                       # miss rate for LoadLockedReq accesses
system.cpu.dcache.LoadLockedReq_avg_miss_latency::.cpu.data        73500                       # average LoadLockedReq miss latency
system.cpu.dcache.LoadLockedReq_avg_miss_latency::total        73500                       # average LoadLockedReq miss latency
system.cpu.dcache.LoadLockedReq_mshr_misses::.cpu.data            2                       # number of LoadLockedReq MSHR misses
system.cpu.dcache.LoadLockedReq_mshr_misses::total            2                       # number of LoadLockedReq MSHR misses
system.cpu.dcache.LoadLockedReq_mshr_miss_latency::.cpu.data       145000                       # number of LoadLockedReq MSHR miss cycles
system.cpu.dcache.LoadLockedReq_mshr_miss_latency::total       145000                       # number of LoadLockedReq MSHR miss cycles
system.cpu.dcache.LoadLockedReq_mshr_miss_rate::.cpu.data     0.142857                       # mshr miss rate for LoadLockedReq accesses
system.cpu.dcache.LoadLockedReq_mshr_miss_rate::total     0.142857                       # mshr miss rate for LoadLockedReq accesses
system.cpu.dcache.LoadLockedReq_avg_mshr_miss_latency::.cpu.data        72500                       # average LoadLockedReq mshr miss latency
system.cpu.dcache.LoadLockedReq_avg_mshr_miss_latency::total        72500                       # average LoadLockedReq mshr miss latency
system.cpu.dcache.StoreCondReq_hits::.cpu.data           14                       # number of StoreCondReq hits
system.cpu.dcache.StoreCondReq_hits::total           14                       # number of StoreCondReq hits
system.cpu.dcache.StoreCondReq_accesses::.cpu.data           14                       # number of StoreCondReq accesses(hits+misses)
system.cpu.dcache.StoreCondReq_accesses::total           14                       # number of StoreCondReq accesses(hits+misses)
system.cpu.dcache.power_state.pwrStateResidencyTicks::UNDEFINED 490238920500                       # Cumulative time (in ticks) in various power states
system.cpu.dcache.tags.tagsinuse          4093.898451                       # Cycle average of tags in use
system.cpu.dcache.tags.total_refs            42845654                       # Total number of references to valid blocks.
system.cpu.dcache.tags.sampled_refs           5950208                       # Sample count of references to valid blocks.
system.cpu.dcache.tags.avg_refs              7.200699                       # Average number of references to valid blocks.
system.cpu.dcache.tags.warmup_cycle            249500                       # Cycle when the warmup percentage was hit.
system.cpu.dcache.tags.occ_blocks::.cpu.data  4093.898451                       # Average occupied blocks per requestor
system.cpu.dcache.tags.occ_percent::.cpu.data     0.999487                       # Average percentage of cache occupancy
system.cpu.dcache.tags.occ_percent::total     0.999487                       # Average percentage of cache occupancy
system.cpu.dcache.tags.occ_task_id_blocks::1024         4096                       # Occupied blocks per task id
system.cpu.dcache.tags.age_task_id_blocks_1024::0          120                       # Occupied blocks per task id
system.cpu.dcache.tags.age_task_id_blocks_1024::1         1094                       # Occupied blocks per task id
system.cpu.dcache.tags.age_task_id_blocks_1024::2         2879                       # Occupied blocks per task id
system.cpu.dcache.tags.age_task_id_blocks_1024::4            3                       # Occupied blocks per task id
system.cpu.dcache.tags.occ_task_id_percent::1024            1                       # Percentage of cache occupancy per task id
system.cpu.dcache.tags.tag_accesses         103541258                       # Number of tag accesses
system.cpu.dcache.tags.data_accesses        103541258                       # Number of data accesses
system.cpu.dcache.tags.power_state.pwrStateResidencyTicks::UNDEFINED 490238920500                       # Cumulative time (in ticks) in various power states
system.cpu.dtb.instHits                             0                       # ITB inst hits
system.cpu.dtb.instMisses                           0                       # ITB inst misses
system.cpu.dtb.readHits                             0                       # DTB read hits
system.cpu.dtb.readMisses                           0                       # DTB read misses
system.cpu.dtb.writeHits                            0                       # DTB write hits
system.cpu.dtb.writeMisses                          0                       # DTB write misses
system.cpu.dtb.inserts                              0                       # Number of times an entry is inserted into the TLB
system.cpu.dtb.flushTlb                             0                       # Number of times complete TLB was flushed
system.cpu.dtb.flushTlbMva                          0                       # Number of times TLB was flushed by MVA
system.cpu.dtb.flushTlbMvaAsid                      0                       # Number of times TLB was flushed by MVA & ASID
system.cpu.dtb.flushTlbAsid                         0                       # Number of times TLB was flushed by ASID
system.cpu.dtb.flushedEntries                       0                       # Number of entries that have been flushed from TLB
system.cpu.dtb.alignFaults                          0                       # Number of TLB faults due to alignment restrictions
system.cpu.dtb.prefetchFaults                       0                       # Number of TLB faults due to prefetch
system.cpu.dtb.domainFaults                         0                       # Number of TLB faults due to domain restrictions
system.cpu.dtb.permsFaults                          0                       # Number of TLB faults due to permissions restrictions
system.cpu.dtb.readAccesses                         0                       # DTB read accesses
system.cpu.dtb.writeAccesses                        0                       # DTB write accesses
system.cpu.dtb.instAccesses                         0                       # ITB inst accesses
system.cpu.dtb.hits                                 0                       # Total TLB (inst and data) hits
system.cpu.dtb.misses                               0                       # Total TLB (inst and data) misses
system.cpu.dtb.accesses                             0                       # Total TLB (inst and data) accesses
system.cpu.dtb.stage2_mmu.stage2_tlb.instHits            0                       # ITB inst hits
system.cpu.dtb.stage2_mmu.stage2_tlb.instMisses            0                       # ITB inst misses
system.cpu.dtb.stage2_mmu.stage2_tlb.readHits            0                       # DTB read hits
system.cpu.dtb.stage2_mmu.stage2_tlb.readMisses            0                       # DTB read misses
system.cpu.dtb.stage2_mmu.stage2_tlb.writeHits            0                       # DTB write hits
system.cpu.dtb.stage2_mmu.stage2_tlb.writeMisses            0                       # DTB write misses
system.cpu.dtb.stage2_mmu.stage2_tlb.inserts            0                       # Number of times an entry is inserted into the TLB
system.cpu.dtb.stage2_mmu.stage2_tlb.flushTlb            0                       # Number of times complete TLB was flushed
system.cpu.dtb.stage2_mmu.stage2_tlb.flushTlbMva            0                       # Number of times TLB was flushed by MVA
system.cpu.dtb.stage2_mmu.stage2_tlb.flushTlbMvaAsid            0                       # Number of times TLB was flushed by MVA & ASID
system.cpu.dtb.stage2_mmu.stage2_tlb.flushTlbAsid            0                       # Number of times TLB was flushed by ASID
system.cpu.dtb.stage2_mmu.stage2_tlb.flushedEntries            0                       # Number of entries that have been flushed from TLB
system.cpu.dtb.stage2_mmu.stage2_tlb.alignFaults            0                       # Number of TLB faults due to alignment restrictions
system.cpu.dtb.stage2_mmu.stage2_tlb.prefetchFaults            0                       # Number of TLB faults due to prefetch
system.cpu.dtb.stage2_mmu.stage2_tlb.domainFaults            0                       # Number of TLB faults due to domain restrictions
system.cpu.dtb.stage2_mmu.stage2_tlb.permsFaults            0                       # Number of TLB faults due to permissions restrictions
system.cpu.dtb.stage2_mmu.stage2_tlb.readAccesses            0                       # DTB read accesses
system.cpu.dtb.stage2_mmu.stage2_tlb.writeAccesses            0                       # DTB write accesses
system.cpu.dtb.stage2_mmu.stage2_tlb.instAccesses            0                       # ITB inst accesses
system.cpu.dtb.stage2_mmu.stage2_tlb.hits            0                       # Total TLB (inst and data) hits
system.cpu.dtb.stage2_mmu.stage2_tlb.misses            0                       # Total TLB (inst and data) misses
system.cpu.dtb.stage2_mmu.stage2_tlb.accesses            0                       # Total TLB (inst and data) accesses
system.cpu.dtb.stage2_mmu.stage2_tlb.walker.walks            0                       # Table walker walks requested
system.cpu.dtb.stage2_mmu.stage2_tlb.walker.requestOrigin_Requested::Data            0                       # Table walker requests started/completed, data/inst
system.cpu.dtb.stage2_mmu.stage2_tlb.walker.requestOrigin_Requested::Inst            0                       # Table walker requests started/completed, data/inst
system.cpu.dtb.stage2_mmu.stage2_tlb.walker.requestOrigin_Requested::total            0                       # Table walker requests started/completed, data/inst
system.cpu.dtb.stage2_mmu.stage2_tlb.walker.requestOrigin_Completed::Data            0                       # Table walker requests started/completed, data/inst
system.cpu.dtb.stage2_mmu.stage2_tlb.walker.requestOrigin_Completed::Inst            0                       # Table walker requests started/completed, data/inst
system.cpu.dtb.stage2_mmu.stage2_tlb.walker.requestOrigin_Completed::total            0                       # Table walker requests started/completed, data/inst
system.cpu.dtb.stage2_mmu.stage2_tlb.walker.requestOrigin::total            0                       # Table walker requests started/completed, data/inst
system.cpu.dtb.stage2_mmu.stage2_tlb.walker.power_state.pwrStateResidencyTicks::UNDEFINED 490238920500                       # Cumulative time (in ticks) in various power states
system.cpu.dtb.walker.walks                         0                       # Table walker walks requested
system.cpu.dtb.walker.requestOrigin_Requested::Data            0                       # Table walker requests started/completed, data/inst
system.cpu.dtb.walker.requestOrigin_Requested::Inst            0                       # Table walker requests started/completed, data/inst
system.cpu.dtb.walker.requestOrigin_Requested::total            0                       # Table walker requests started/completed, data/inst
system.cpu.dtb.walker.requestOrigin_Completed::Data            0                       # Table walker requests started/completed, data/inst
system.cpu.dtb.walker.requestOrigin_Completed::Inst            0                       # Table walker requests started/completed, data/inst
system.cpu.dtb.walker.requestOrigin_Completed::total            0                       # Table walker requests started/completed, data/inst
system.cpu.dtb.walker.requestOrigin::total            0                       # Table walker requests started/completed, data/inst
system.cpu.dtb.walker.power_state.pwrStateResidencyTicks::UNDEFINED 490238920500                       # Cumulative time (in ticks) in various power states
system.cpu.fetch2.intInstructions            49653603                       # Number of integer instructions successfully decoded
system.cpu.fetch2.fpInstructions                    0                       # Number of floating point instructions successfully decoded
system.cpu.fetch2.vecInstructions                   0                       # Number of SIMD instructions successfully decoded
system.cpu.fetch2.loadInstructions           37077730                       # Number of memory load instructions successfully decoded
system.cpu.fetch2.storeInstructions          13160770                       # Number of memory store instructions successfully decoded
system.cpu.fetch2.amoInstructions                   0                       # Number of memory atomic instructions successfully decoded
system.cpu.icache.demand_hits::.cpu.inst     16812566                       # number of demand (read+write) hits
system.cpu.icache.demand_hits::total         16812566                       # number of demand (read+write) hits
system.cpu.icache.overall_hits::.cpu.inst     16812566                       # number of overall hits
system.cpu.icache.overall_hits::total        16812566                       # number of overall hits
system.cpu.icache.demand_misses::.cpu.inst         1260                       # number of demand (read+write) misses
system.cpu.icache.demand_misses::total           1260                       # number of demand (read+write) misses
system.cpu.icache.overall_misses::.cpu.inst         1260                       # number of overall misses
system.cpu.icache.overall_misses::total          1260                       # number of overall misses
system.cpu.icache.demand_miss_latency::.cpu.inst     94099000                       # number of demand (read+write) miss cycles
system.cpu.icache.demand_miss_latency::total     94099000                       # number of demand (read+write) miss cycles
system.cpu.icache.overall_miss_latency::.cpu.inst     94099000                       # number of overall miss cycles
system.cpu.icache.overall_miss_latency::total     94099000                       # number of overall miss cycles
system.cpu.icache.demand_accesses::.cpu.inst     16813826                       # number of demand (read+write) accesses
system.cpu.icache.demand_accesses::total     16813826                       # number of demand (read+write) accesses
system.cpu.icache.overall_accesses::.cpu.inst     16813826                       # number of overall (read+write) accesses
system.cpu.icache.overall_accesses::total     16813826                       # number of overall (read+write) accesses
system.cpu.icache.demand_miss_rate::.cpu.inst     0.000075                       # miss rate for demand accesses
system.cpu.icache.demand_miss_rate::total     0.000075                       # miss rate for demand accesses
system.cpu.icache.overall_miss_rate::.cpu.inst     0.000075                       # miss rate for overall accesses
system.cpu.icache.overall_miss_rate::total     0.000075                       # miss rate for overall accesses
system.cpu.icache.demand_avg_miss_latency::.cpu.inst 74681.746032                       # average overall miss latency
system.cpu.icache.demand_avg_miss_latency::total 74681.746032                       # average overall miss latency
system.cpu.icache.overall_avg_miss_latency::.cpu.inst 74681.746032                       # average overall miss latency
system.cpu.icache.overall_avg_miss_latency::total 74681.746032                       # average overall miss latency
system.cpu.icache.blocked_cycles::no_mshrs            0                       # number of cycles access was blocked
system.cpu.icache.blocked_cycles::no_targets            0                       # number of cycles access was blocked
system.cpu.icache.blocked::no_mshrs                 0                       # number of cycles access was blocked
system.cpu.icache.blocked::no_targets               0                       # number of cycles access was blocked
system.cpu.icache.avg_blocked_cycles::no_mshrs          nan                       # average number of cycles each access was blocked
system.cpu.icache.avg_blocked_cycles::no_targets          nan                       # average number of cycles each access was blocked
system.cpu.icache.writebacks::.writebacks          254                       # number of writebacks
system.cpu.icache.writebacks::total               254                       # number of writebacks
system.cpu.icache.demand_mshr_misses::.cpu.inst         1260                       # number of demand (read+write) MSHR misses
system.cpu.icache.demand_mshr_misses::total         1260                       # number of demand (read+write) MSHR misses
system.cpu.icache.overall_mshr_misses::.cpu.inst         1260                       # number of overall MSHR misses
system.cpu.icache.overall_mshr_misses::total         1260                       # number of overall MSHR misses
system.cpu.icache.demand_mshr_miss_latency::.cpu.inst     92839000                       # number of demand (read+write) MSHR miss cycles
system.cpu.icache.demand_mshr_miss_latency::total     92839000                       # number of demand (read+write) MSHR miss cycles
system.cpu.icache.overall_mshr_miss_latency::.cpu.inst     92839000                       # number of overall MSHR miss cycles
system.cpu.icache.overall_mshr_miss_latency::total     92839000                       # number of overall MSHR miss cycles
system.cpu.icache.demand_mshr_miss_rate::.cpu.inst     0.000075                       # mshr miss rate for demand accesses
system.cpu.icache.demand_mshr_miss_rate::total     0.000075                       # mshr miss rate for demand accesses
system.cpu.icache.overall_mshr_miss_rate::.cpu.inst     0.000075                       # mshr miss rate for overall accesses
system.cpu.icache.overall_mshr_miss_rate::total     0.000075                       # mshr miss rate for overall accesses
system.cpu.icache.demand_avg_mshr_miss_latency::.cpu.inst 73681.746032                       # average overall mshr miss latency
system.cpu.icache.demand_avg_mshr_miss_latency::total 73681.746032                       # average overall mshr miss latency
system.cpu.icache.overall_avg_mshr_miss_latency::.cpu.inst 73681.746032                       # average overall mshr miss latency
system.cpu.icache.overall_avg_mshr_miss_latency::total 73681.746032                       # average overall mshr miss latency
system.cpu.icache.replacements                    254                       # number of replacements
system.cpu.icache.ReadReq_hits::.cpu.inst     16812566                       # number of ReadReq hits
system.cpu.icache.ReadReq_hits::total        16812566                       # number of ReadReq hits
system.cpu.icache.ReadReq_misses::.cpu.inst         1260                       # number of ReadReq misses
system.cpu.icache.ReadReq_misses::total          1260                       # number of ReadReq misses
system.cpu.icache.ReadReq_miss_latency::.cpu.inst     94099000                       # number of ReadReq miss cycles
system.cpu.icache.ReadReq_miss_latency::total     94099000                       # number of ReadReq miss cycles
system.cpu.icache.ReadReq_accesses::.cpu.inst     16813826                       # number of ReadReq accesses(hits+misses)
system.cpu.icache.ReadReq_accesses::total     16813826                       # number of ReadReq accesses(hits+misses)
system.cpu.icache.ReadReq_miss_rate::.cpu.inst     0.000075                       # miss rate for ReadReq accesses
system.cpu.icache.ReadReq_miss_rate::total     0.000075                       # miss rate for ReadReq accesses
system.cpu.icache.ReadReq_avg_miss_latency::.cpu.inst 74681.746032                       # average ReadReq miss latency
system.cpu.icache.ReadReq_avg_miss_latency::total 74681.746032                       # average ReadReq miss latency
system.cpu.icache.ReadReq_mshr_misses::.cpu.inst         1260                       # number of ReadReq MSHR misses
system.cpu.icache.ReadReq_mshr_misses::total         1260                       # number of ReadReq MSHR misses
system.cpu.icache.ReadReq_mshr_miss_latency::.cpu.inst     92839000                       # number of ReadReq MSHR miss cycles
system.cpu.icache.ReadReq_mshr_miss_latency::total     92839000                       # number of ReadReq MSHR miss cycles
system.cpu.icache.ReadReq_mshr_miss_rate::.cpu.inst     0.000075                       # mshr miss rate for ReadReq accesses
system.cpu.icache.ReadReq_mshr_miss_rate::total     0.000075                       # mshr miss rate for ReadReq accesses
system.cpu.icache.ReadReq_avg_mshr_miss_latency::.cpu.inst 73681.746032                       # average ReadReq mshr miss latency
system.cpu.icache.ReadReq_avg_mshr_miss_latency::total 73681.746032                       # average ReadReq mshr miss latency
system.cpu.icache.power_state.pwrStateResidencyTicks::UNDEFINED 490238920500                       # Cumulative time (in ticks) in various power states
system.cpu.icache.tags.tagsinuse          1005.888624                       # Cycle average of tags in use
system.cpu.icache.tags.total_refs            16813826                       # Total number of references to valid blocks.
system.cpu.icache.tags.sampled_refs              1260                       # Sample count of references to valid blocks.
system.cpu.icache.tags.avg_refs          13344.306349                       # Average number of references to valid blocks.
system.cpu.icache.tags.warmup_cycle             87500                       # Cycle when the warmup percentage was hit.
system.cpu.icache.tags.occ_blocks::.cpu.inst  1005.888624                       # Average occupied blocks per requestor
system.cpu.icache.tags.occ_percent::.cpu.inst     0.491157                       # Average percentage of cache occupancy
system.cpu.icache.tags.occ_percent::total     0.491157                       # Average percentage of cache occupancy
system.cpu.icache.tags.occ_task_id_blocks::1024         1006                       # Occupied blocks per task id
system.cpu.icache.tags.age_task_id_blocks_1024::4         1006                       # Occupied blocks per task id
system.cpu.icache.tags.occ_task_id_percent::1024     0.491211                       # Percentage of cache occupancy per task id
system.cpu.icache.tags.tag_accesses          33628912                       # Number of tag accesses
system.cpu.icache.tags.data_accesses         33628912                       # Number of data accesses
system.cpu.icache.tags.power_state.pwrStateResidencyTicks::UNDEFINED 490238920500                       # Cumulative time (in ticks) in various power states
system.cpu.itb.instHits                             0                       # ITB inst hits
system.cpu.itb.instMisses                           0                       # ITB inst misses
system.cpu.itb.readHits                             0                       # DTB read hits
system.cpu.itb.readMisses                           0                       # DTB read misses
system.cpu.itb.writeHits                            0                       # DTB write hits
system.cpu.itb.writeMisses                          0                       # DTB write misses
system.cpu.itb.inserts                              0                       # Number of times an entry is inserted into the TLB
system.cpu.itb.flushTlb                             0                       # Number of times complete TLB was flushed
system.cpu.itb.flushTlbMva                          0                       # Number of times TLB was flushed by MVA
system.cpu.itb.flushTlbMvaAsid                      0                       # Number of times TLB was flushed by MVA & ASID
system.cpu.itb.flushTlbAsid                         0                       # Number of times TLB was flushed by ASID
system.cpu.itb.flushedEntries                       0                       # Number of entries that have been flushed from TLB
system.cpu.itb.alignFaults                          0                       # Number of TLB faults due to alignment restrictions
system.cpu.itb.prefetchFaults                       0                       # Number of TLB faults due to prefetch
system.cpu.itb.domainFaults                         0                       # Number of TLB faults due to domain restrictions
system.cpu.itb.permsFaults                          0                       # Number of TLB faults due to permissions restrictions
system.cpu.itb.readAccesses                         0                       # DTB read accesses
system.cpu.itb.writeAccesses                        0                       # DTB write accesses
system.cpu.itb.instAccesses                         0                       # ITB inst accesses
system.cpu.itb.hits                                 0                       # Total TLB (inst and data) hits
system.cpu.itb.misses                               0                       # Total TLB (inst and data) misses
system.cpu.itb.accesses                             0                       # Total TLB (inst and data) accesses
system.cpu.itb.stage2_mmu.stage2_tlb.instHits            0                       # ITB inst hits
system.cpu.itb.stage2_mmu.stage2_tlb.instMisses            0                       # ITB inst misses
system.cpu.itb.stage2_mmu.stage2_tlb.readHits            0                       # DTB read hits
system.cpu.itb.stage2_mmu.stage2_tlb.readMisses            0                       # DTB read misses
system.cpu.itb.stage2_mmu.stage2_tlb.writeHits            0                       # DTB write hits
system.cpu.itb.stage2_mmu.stage2_tlb.writeMisses            0                       # DTB write misses
system.cpu.itb.stage2_mmu.stage2_tlb.inserts            0                       # Number of times an entry is inserted into the TLB
system.cpu.itb.stage2_mmu.stage2_tlb.flushTlb            0                       # Number of times complete TLB was flushed
system.cpu.itb.stage2_mmu.stage2_tlb.flushTlbMva            0                       # Number of times TLB was flushed by MVA
system.cpu.itb.stage2_mmu.stage2_tlb.flushTlbMvaAsid            0                       # Number of times TLB was flushed by MVA & ASID
system.cpu.itb.stage2_mmu.stage2_tlb.flushTlbAsid            0                       # Number of times TLB was flushed by ASID
system.cpu.itb.stage2_mmu.stage2_tlb.flushedEntries            0                       # Number of entries that have been flushed from TLB
system.cpu.itb.stage2_mmu.stage2_tlb.alignFaults            0                       # Number of TLB faults due to alignment restrictions
system.cpu.itb.stage2_mmu.stage2_tlb.prefetchFaults            0                       # Number of TLB faults due to prefetch
system.cpu.itb.stage2_mmu.stage2_tlb.domainFaults            0                       # Number of TLB faults due to domain restrictions
system.cpu.itb.stage2_mmu.stage2_tlb.permsFaults            0                       # Number of TLB faults due to permissions restrictions
system.cpu.itb.stage2_mmu.stage2_tlb.readAccesses            0                       # DTB read accesses
system.cpu.itb.stage2_mmu.stage2_tlb.writeAccesses            0                       # DTB write accesses
system.cpu.itb.stage2_mmu.stage2_tlb.instAccesses            0                       # ITB inst accesses
system.cpu.itb.stage2_mmu.stage2_tlb.hits            0                       # Total TLB (inst and data) hits
system.cpu.itb.stage2_mmu.stage2_tlb.misses            0                       # Total TLB (inst and data) misses
system.cpu.itb.stage2_mmu.stage2_tlb.accesses            0                       # Total TLB (inst and data) accesses
system.cpu.itb.stage2_mmu.stage2_tlb.walker.walks            0                       # Table walker walks requested
system.cpu.itb.stage2_mmu.stage2_tlb.walker.requestOrigin_Requested::Data            0                       # Table walker requests started/completed, data/inst
system.cpu.itb.stage2_mmu.stage2_tlb.walker.requestOrigin_Requested::Inst            0                       # Table walker requests started/completed, data/inst
system.cpu.itb.stage2_mmu.stage2_tlb.walker.requestOrigin_Requested::total            0                       # Table walker requests started/completed, data/inst
system.cpu.itb.stage2_mmu.stage2_tlb.walker.requestOrigin_Completed::Data            0                       # Table walker requests started/completed, data/inst
system.cpu.itb.stage2_mmu.stage2_tlb.walker.requestOrigin_Completed::Inst            0                       # Table walker requests started/completed, data/inst
system.cpu.itb.stage2_mmu.stage2_tlb.walker.requestOrigin_Completed::total            0                       # Table walker requests started/completed, data/inst
system.cpu.itb.stage2_mmu.stage2_tlb.walker.requestOrigin::total            0                       # Table walker requests started/completed, data/inst
system.cpu.itb.stage2_mmu.stage2_tlb.walker.power_state.pwrStateResidencyTicks::UNDEFINED 490238920500                       # Cumulative time (in ticks) in various power states
system.cpu.itb.walker.walks                         0                       # Table walker walks requested
system.cpu.itb.walker.requestOrigin_Requested::Data            0                       # Table walker requests started/completed, data/inst
system.cpu.itb.walker.requestOrigin_Requested::Inst            0                       # Table walker requests started/completed, data/inst
system.cpu.itb.walker.requestOrigin_Requested::total            0                       # Table walker requests started/completed, data/inst
system.cpu.itb.walker.requestOrigin_Completed::Data            0                       # Table walker requests started/completed, data/inst
system.cpu.itb.walker.requestOrigin_Completed::Inst            0                       # Table walker requests started/completed, data/inst
system.cpu.itb.walker.requestOrigin_Completed::total            0                       # Table walker requests started/completed, data/inst
system.cpu.itb.walker.requestOrigin::total            0                       # Table walker requests started/completed, data/inst
system.cpu.itb.walker.power_state.pwrStateResidencyTicks::UNDEFINED 490238920500                       # Cumulative time (in ticks) in various power states
system.cpu.power_state.pwrStateResidencyTicks::ON 490238920500                       # Cumulative time (in ticks) in various power states
system.cpu.thread0.numInsts                 100000000                       # Number of Instructions committed
system.cpu.thread0.numOps                   100003630                       # Number of Ops committed
system.cpu.thread0.numMemRefs                       0                       # Number of Memory References
system.cpu_clk_domain.clock                       500                       # Clock period in ticks
system.cpu_voltage_domain.voltage                   1                       # Voltage in Volts
system.l2.demand_hits::.cpu.inst                   44                       # number of demand (read+write) hits
system.l2.demand_hits::.cpu.data                   10                       # number of demand (read+write) hits
system.l2.demand_hits::total                       54                       # number of demand (read+write) hits
system.l2.overall_hits::.cpu.inst                  44                       # number of overall hits
system.l2.overall_hits::.cpu.data                  10                       # number of overall hits
system.l2.overall_hits::total                      54                       # number of overall hits
system.l2.demand_misses::.cpu.inst               1216                       # number of demand (read+write) misses
system.l2.demand_misses::.cpu.data            5950199                       # number of demand (read+write) misses
system.l2.demand_misses::total                5951415                       # number of demand (read+write) misses
system.l2.overall_misses::.cpu.inst              1216                       # number of overall misses
system.l2.overall_misses::.cpu.data           5950199                       # number of overall misses
system.l2.overall_misses::total               5951415                       # number of overall misses
system.l2.demand_miss_latency::.cpu.inst     90472500                       # number of demand (read+write) miss cycles
system.l2.demand_miss_latency::.cpu.data 445428370500                       # number of demand (read+write) miss cycles
system.l2.demand_miss_latency::total     445518843000                       # number of demand (read+write) miss cycles
system.l2.overall_miss_latency::.cpu.inst     90472500                       # number of overall miss cycles
system.l2.overall_miss_latency::.cpu.data 445428370500                       # number of overall miss cycles
system.l2.overall_miss_latency::total    445518843000                       # number of overall miss cycles
system.l2.demand_accesses::.cpu.inst             1260                       # number of demand (read+write) accesses
system.l2.demand_accesses::.cpu.data          5950209                       # number of demand (read+write) accesses
system.l2.demand_accesses::total              5951469                       # number of demand (read+write) accesses
system.l2.overall_accesses::.cpu.inst            1260                       # number of overall (read+write) accesses
system.l2.overall_accesses::.cpu.data         5950209                       # number of overall (read+write) accesses
system.l2.overall_accesses::total             5951469                       # number of overall (read+write) accesses
system.l2.demand_miss_rate::.cpu.inst        0.965079                       # miss rate for demand accesses
system.l2.demand_miss_rate::.cpu.data        0.999998                       # miss rate for demand accesses
system.l2.demand_miss_rate::total            0.999991                       # miss rate for demand accesses
system.l2.overall_miss_rate::.cpu.inst       0.965079                       # miss rate for overall accesses
system.l2.overall_miss_rate::.cpu.data       0.999998                       # miss rate for overall accesses
system.l2.overall_miss_rate::total           0.999991                       # miss rate for overall accesses
system.l2.demand_avg_miss_latency::.cpu.inst 74401.726974                       # average overall miss latency
system.l2.demand_avg_miss_latency::.cpu.data 74859.407307                       # average overall miss latency
system.l2.demand_avg_miss_latency::total 74859.313793                       # average overall miss latency
system.l2.overall_avg_miss_latency::.cpu.inst 74401.726974                       # average overall miss latency
system.l2.overall_avg_miss_latency::.cpu.data 74859.407307                       # average overall miss latency
system.l2.overall_avg_miss_latency::total 74859.313793                       # average overall miss latency
system.l2.blocked_cycles::no_mshrs                  0                       # number of cycles access was blocked
system.l2.blocked_cycles::no_targets                0                       # number of cycles access was blocked
system.l2.blocked::no_mshrs                         0                       # number of cycles access was blocked
system.l2.blocked::no_targets                       0                       # number of cycles access was blocked
system.l2.avg_blocked_cycles::no_mshrs            nan                       # average number of cycles each access was blocked
system.l2.avg_blocked_cycles::no_targets          nan                       # average number of cycles each access was blocked
system.l2.writebacks::.writebacks             5818919                       # number of writebacks
system.l2.writebacks::total                   5818919                       # number of writebacks
system.l2.demand_mshr_hits::.cpu.inst               1                       # number of demand (read+write) MSHR hits
system.l2.demand_mshr_hits::.cpu.data               1                       # number of demand (read+write) MSHR hits
system.l2.demand_mshr_hits::total                   2                       # number of demand (read+write) MSHR hits
system.l2.overall_mshr_hits::.cpu.inst              1                       # number of overall MSHR hits
system.l2.overall_mshr_hits::.cpu.data              1                       # number of overall MSHR hits
system.l2.overall_mshr_hits::total                  2                       # number of overall MSHR hits
system.l2.demand_mshr_misses::.cpu.inst          1215                       # number of demand (read+write) MSHR misses
system.l2.demand_mshr_misses::.cpu.data       5950198                       # number of demand (read+write) MSHR misses
system.l2.demand_mshr_misses::total           5951413                       # number of demand (read+write) MSHR misses
system.l2.overall_mshr_misses::.cpu.inst         1215                       # number of overall MSHR misses
system.l2.overall_mshr_misses::.cpu.data      5950198                       # number of overall MSHR misses
system.l2.overall_mshr_misses::total          5951413                       # number of overall MSHR misses
system.l2.demand_mshr_miss_latency::.cpu.inst     78257000                       # number of demand (read+write) MSHR miss cycles
system.l2.demand_mshr_miss_latency::.cpu.data 385926363500                       # number of demand (read+write) MSHR miss cycles
system.l2.demand_mshr_miss_latency::total 386004620500                       # number of demand (read+write) MSHR miss cycles
system.l2.overall_mshr_miss_latency::.cpu.inst     78257000                       # number of overall MSHR miss cycles
system.l2.overall_mshr_miss_latency::.cpu.data 385926363500                       # number of overall MSHR miss cycles
system.l2.overall_mshr_miss_latency::total 386004620500                       # number of overall MSHR miss cycles
system.l2.demand_mshr_miss_rate::.cpu.inst     0.964286                       # mshr miss rate for demand accesses
system.l2.demand_mshr_miss_rate::.cpu.data     0.999998                       # mshr miss rate for demand accesses
system.l2.demand_mshr_miss_rate::total       0.999991                       # mshr miss rate for demand accesses
system.l2.overall_mshr_miss_rate::.cpu.inst     0.964286                       # mshr miss rate for overall accesses
system.l2.overall_mshr_miss_rate::.cpu.data     0.999998                       # mshr miss rate for overall accesses
system.l2.overall_mshr_miss_rate::total      0.999991                       # mshr miss rate for overall accesses
system.l2.demand_avg_mshr_miss_latency::.cpu.inst 64409.053498                       # average overall mshr miss latency
system.l2.demand_avg_mshr_miss_latency::.cpu.data 64859.415351                       # average overall mshr miss latency
system.l2.demand_avg_mshr_miss_latency::total 64859.323408                       # average overall mshr miss latency
system.l2.overall_avg_mshr_miss_latency::.cpu.inst 64409.053498                       # average overall mshr miss latency
system.l2.overall_avg_mshr_miss_latency::.cpu.data 64859.415351                       # average overall mshr miss latency
system.l2.overall_avg_mshr_miss_latency::total 64859.323408                       # average overall mshr miss latency
system.l2.replacements                        5820340                       # number of replacements
system.l2.WritebackDirty_hits::.writebacks      5945898                       # number of WritebackDirty hits
system.l2.WritebackDirty_hits::total          5945898                       # number of WritebackDirty hits
system.l2.WritebackDirty_accesses::.writebacks      5945898                       # number of WritebackDirty accesses(hits+misses)
system.l2.WritebackDirty_accesses::total      5945898                       # number of WritebackDirty accesses(hits+misses)
system.l2.WritebackClean_hits::.writebacks          248                       # number of WritebackClean hits
system.l2.WritebackClean_hits::total              248                       # number of WritebackClean hits
system.l2.WritebackClean_accesses::.writebacks          248                       # number of WritebackClean accesses(hits+misses)
system.l2.WritebackClean_accesses::total          248                       # number of WritebackClean accesses(hits+misses)
system.l2.ReadExReq_misses::.cpu.data         5949956                       # number of ReadExReq misses
system.l2.ReadExReq_misses::total             5949956                       # number of ReadExReq misses
system.l2.ReadExReq_miss_latency::.cpu.data 445408962000                       # number of ReadExReq miss cycles
system.l2.ReadExReq_miss_latency::total  445408962000                       # number of ReadExReq miss cycles
system.l2.ReadExReq_accesses::.cpu.data       5949956                       # number of ReadExReq accesses(hits+misses)
system.l2.ReadExReq_accesses::total           5949956                       # number of ReadExReq accesses(hits+misses)
system.l2.ReadExReq_miss_rate::.cpu.data            1                       # miss rate for ReadExReq accesses
system.l2.ReadExReq_miss_rate::total                1                       # miss rate for ReadExReq accesses
system.l2.ReadExReq_avg_miss_latency::.cpu.data 74859.202656                       # average ReadExReq miss latency
system.l2.ReadExReq_avg_miss_latency::total 74859.202656                       # average ReadExReq miss latency
system.l2.ReadExReq_mshr_misses::.cpu.data      5949956                       # number of ReadExReq MSHR misses
system.l2.ReadExReq_mshr_misses::total        5949956                       # number of ReadExReq MSHR misses
system.l2.ReadExReq_mshr_miss_latency::.cpu.data 385909412000                       # number of ReadExReq MSHR miss cycles
system.l2.ReadExReq_mshr_miss_latency::total 385909412000                       # number of ReadExReq MSHR miss cycles
system.l2.ReadExReq_mshr_miss_rate::.cpu.data            1                       # mshr miss rate for ReadExReq accesses
system.l2.ReadExReq_mshr_miss_rate::total            1                       # mshr miss rate for ReadExReq accesses
system.l2.ReadExReq_avg_mshr_miss_latency::.cpu.data 64859.204337                       # average ReadExReq mshr miss latency
system.l2.ReadExReq_avg_mshr_miss_latency::total 64859.204337                       # average ReadExReq mshr miss latency
system.l2.ReadCleanReq_hits::.cpu.inst             44                       # number of ReadCleanReq hits
system.l2.ReadCleanReq_hits::total                 44                       # number of ReadCleanReq hits
system.l2.ReadCleanReq_misses::.cpu.inst         1216                       # number of ReadCleanReq misses
system.l2.ReadCleanReq_misses::total             1216                       # number of ReadCleanReq misses
system.l2.ReadCleanReq_miss_latency::.cpu.inst     90472500                       # number of ReadCleanReq miss cycles
system.l2.ReadCleanReq_miss_latency::total     90472500                       # number of ReadCleanReq miss cycles
system.l2.ReadCleanReq_accesses::.cpu.inst         1260                       # number of ReadCleanReq accesses(hits+misses)
system.l2.ReadCleanReq_accesses::total           1260                       # number of ReadCleanReq accesses(hits+misses)
system.l2.ReadCleanReq_miss_rate::.cpu.inst     0.965079                       # miss rate for ReadCleanReq accesses
system.l2.ReadCleanReq_miss_rate::total      0.965079                       # miss rate for ReadCleanReq accesses
system.l2.ReadCleanReq_avg_miss_latency::.cpu.inst 74401.726974                       # average ReadCleanReq miss latency
system.l2.ReadCleanReq_avg_miss_latency::total 74401.726974                       # average ReadCleanReq miss latency
system.l2.ReadCleanReq_mshr_hits::.cpu.inst            1                       # number of ReadCleanReq MSHR hits
system.l2.ReadCleanReq_mshr_hits::total             1                       # number of ReadCleanReq MSHR hits
system.l2.ReadCleanReq_mshr_misses::.cpu.inst         1215                       # number of ReadCleanReq MSHR misses
system.l2.ReadCleanReq_mshr_misses::total         1215                       # number of ReadCleanReq MSHR misses
system.l2.ReadCleanReq_mshr_miss_latency::.cpu.inst     78257000                       # number of ReadCleanReq MSHR miss cycles
system.l2.ReadCleanReq_mshr_miss_latency::total     78257000                       # number of ReadCleanReq MSHR miss cycles
system.l2.ReadCleanReq_mshr_miss_rate::.cpu.inst     0.964286                       # mshr miss rate for ReadCleanReq accesses
system.l2.ReadCleanReq_mshr_miss_rate::total     0.964286                       # mshr miss rate for ReadCleanReq accesses
system.l2.ReadCleanReq_avg_mshr_miss_latency::.cpu.inst 64409.053498                       # average ReadCleanReq mshr miss latency
system.l2.ReadCleanReq_avg_mshr_miss_latency::total 64409.053498                       # average ReadCleanReq mshr miss latency
system.l2.ReadSharedReq_hits::.cpu.data            10                       # number of ReadSharedReq hits
system.l2.ReadSharedReq_hits::total                10                       # number of ReadSharedReq hits
system.l2.ReadSharedReq_misses::.cpu.data          243                       # number of ReadSharedReq misses
system.l2.ReadSharedReq_misses::total             243                       # number of ReadSharedReq misses
system.l2.ReadSharedReq_miss_latency::.cpu.data     19408500                       # number of ReadSharedReq miss cycles
system.l2.ReadSharedReq_miss_latency::total     19408500                       # number of ReadSharedReq miss cycles
system.l2.ReadSharedReq_accesses::.cpu.data          253                       # number of ReadSharedReq accesses(hits+misses)
system.l2.ReadSharedReq_accesses::total           253                       # number of ReadSharedReq accesses(hits+misses)
system.l2.ReadSharedReq_miss_rate::.cpu.data     0.960474                       # miss rate for ReadSharedReq accesses
system.l2.ReadSharedReq_miss_rate::total     0.960474                       # miss rate for ReadSharedReq accesses
system.l2.ReadSharedReq_avg_miss_latency::.cpu.data 79870.370370                       # average ReadSharedReq miss latency
system.l2.ReadSharedReq_avg_miss_latency::total 79870.370370                       # average ReadSharedReq miss latency
system.l2.ReadSharedReq_mshr_hits::.cpu.data            1                       # number of ReadSharedReq MSHR hits
system.l2.ReadSharedReq_mshr_hits::total            1                       # number of ReadSharedReq MSHR hits
system.l2.ReadSharedReq_mshr_misses::.cpu.data          242                       # number of ReadSharedReq MSHR misses
system.l2.ReadSharedReq_mshr_misses::total          242                       # number of ReadSharedReq MSHR misses
system.l2.ReadSharedReq_mshr_miss_latency::.cpu.data     16951500                       # number of ReadSharedReq MSHR miss cycles
system.l2.ReadSharedReq_mshr_miss_latency::total     16951500                       # number of ReadSharedReq MSHR miss cycles
system.l2.ReadSharedReq_mshr_miss_rate::.cpu.data     0.956522                       # mshr miss rate for ReadSharedReq accesses
system.l2.ReadSharedReq_mshr_miss_rate::total     0.956522                       # mshr miss rate for ReadSharedReq accesses
system.l2.ReadSharedReq_avg_mshr_miss_latency::.cpu.data 70047.520661                       # average ReadSharedReq mshr miss latency
system.l2.ReadSharedReq_avg_mshr_miss_latency::total 70047.520661                       # average ReadSharedReq mshr miss latency
system.l2.power_state.pwrStateResidencyTicks::UNDEFINED 490238920500                       # Cumulative time (in ticks) in various power states
system.l2.tags.tagsinuse                 129668.030516                       # Cycle average of tags in use
system.l2.tags.total_refs                    11897808                       # Total number of references to valid blocks.
system.l2.tags.sampled_refs                   5951412                       # Sample count of references to valid blocks.
system.l2.tags.avg_refs                      1.999157                       # Average number of references to valid blocks.
system.l2.tags.warmup_cycle                     77000                       # Cycle when the warmup percentage was hit.
system.l2.tags.occ_blocks::.cpu.inst        24.649062                       # Average occupied blocks per requestor
system.l2.tags.occ_blocks::.cpu.data     129643.381454                       # Average occupied blocks per requestor
system.l2.tags.occ_percent::.cpu.inst        0.000188                       # Average percentage of cache occupancy
system.l2.tags.occ_percent::.cpu.data        0.989101                       # Average percentage of cache occupancy
system.l2.tags.occ_percent::total            0.989289                       # Average percentage of cache occupancy
system.l2.tags.occ_task_id_blocks::1024        131072                       # Occupied blocks per task id
system.l2.tags.age_task_id_blocks_1024::0          120                       # Occupied blocks per task id
system.l2.tags.age_task_id_blocks_1024::1         1094                       # Occupied blocks per task id
system.l2.tags.age_task_id_blocks_1024::2        10920                       # Occupied blocks per task id
system.l2.tags.age_task_id_blocks_1024::3       109190                       # Occupied blocks per task id
system.l2.tags.age_task_id_blocks_1024::4         9748                       # Occupied blocks per task id
system.l2.tags.occ_task_id_percent::1024            1                       # Percentage of cache occupancy per task id
system.l2.tags.tag_accesses                 101133900                       # Number of tag accesses
system.l2.tags.data_accesses                101133900                       # Number of data accesses
system.l2.tags.power_state.pwrStateResidencyTicks::UNDEFINED 490238920500                       # Cumulative time (in ticks) in various power states
system.mem_ctrls.avgPriority_.writebacks::samples   1454752.00                       # Average QoS priority value for accepted requests
system.mem_ctrls.avgPriority_.cpu.inst::samples      1215.00                       # Average QoS priority value for accepted requests
system.mem_ctrls.avgPriority_.cpu.data::samples   5950197.00                       # Average QoS priority value for accepted requests
system.mem_ctrls.priorityMinLatency      0.000000018750                       # per QoS priority minimum request to response latency (s)
system.mem_ctrls.priorityMaxLatency      0.000216996500                       # per QoS priority maximum request to response latency (s)
system.mem_ctrls.numReadWriteTurnArounds        90920                       # Number of turnarounds from READ to WRITE
system.mem_ctrls.numWriteReadTurnArounds        90920                       # Number of turnarounds from WRITE to READ
system.mem_ctrls.numStayReadState            17754570                       # Number of times bus staying in READ state
system.mem_ctrls.numStayWriteState            1365149                       # Number of times bus staying in WRITE state
system.mem_ctrls.readReqs                     5951412                       # Number of read requests accepted
system.mem_ctrls.writeReqs                    5818919                       # Number of write requests accepted
system.mem_ctrls.readBursts                   5951412                       # Number of controller read bursts, including those serviced by the write queue
system.mem_ctrls.writeBursts                  5818919                       # Number of controller write bursts, including those merged in the write queue
system.mem_ctrls.servicedByWrQ                      0                       # Number of controller read bursts serviced by the write queue
system.mem_ctrls.mergedWrBursts               4364167                       # Number of controller write bursts merged with an existing one
system.mem_ctrls.neitherReadNorWriteReqs            0                       # Number of requests that are neither read nor write
system.mem_ctrls.avgRdQLen                       1.00                       # Average read queue length when enqueuing
system.mem_ctrls.avgWrQLen                      25.15                       # Average write queue length when enqueuing
system.mem_ctrls.numRdRetry                         0                       # Number of times read queue was full causing retry
system.mem_ctrls.numWrRetry                         0                       # Number of times write queue was full causing retry
system.mem_ctrls.readPktSize::0                     0                       # Read request sizes (log2)
system.mem_ctrls.readPktSize::1                     0                       # Read request sizes (log2)
system.mem_ctrls.readPktSize::2                     0                       # Read request sizes (log2)
system.mem_ctrls.readPktSize::3                     0                       # Read request sizes (log2)
system.mem_ctrls.readPktSize::4               5951412                       # Read request sizes (log2)
system.mem_ctrls.writePktSize::0                    0                       # Write request sizes (log2)
system.mem_ctrls.writePktSize::1                    0                       # Write request sizes (log2)
system.mem_ctrls.writePktSize::2                    0                       # Write request sizes (log2)
system.mem_ctrls.writePktSize::3                    0                       # Write request sizes (log2)
[...]
system.mem_ctrls.dram.bw_write::.writebacks    189912918                       # Write bandwidth from this memory (bytes/s)
system.mem_ctrls.dram.bw_write::total       189912918                       # Write bandwidth from this memory (bytes/s)
system.mem_ctrls.dram.bw_total::.writebacks    189912918                       # Total bandwidth to/from this memory (bytes/s)
system.mem_ctrls.dram.bw_total::.cpu.inst        39654                       # Total bandwidth to/from this memory (bytes/s)
system.mem_ctrls.dram.bw_total::.cpu.data    194197458                       # Total bandwidth to/from this memory (bytes/s)
system.mem_ctrls.dram.bw_total::total       384150030                       # Total bandwidth to/from this memory (bytes/s)
system.mem_ctrls.dram.readBursts              5951412                       # Number of DRAM read bursts
system.mem_ctrls.dram.writeBursts             1454722                       # Number of DRAM write bursts
system.mem_ctrls.dram.perBankRdBursts::0       371982                       # Per bank write bursts
system.mem_ctrls.dram.perBankRdBursts::1       371846                       # Per bank write bursts
system.mem_ctrls.dram.perBankRdBursts::2       371944                       # Per bank write bursts
system.mem_ctrls.dram.perBankRdBursts::3       371777                       # Per bank write bursts
system.mem_ctrls.dram.perBankRdBursts::4       371837                       # Per bank write bursts
system.mem_ctrls.dram.perBankRdBursts::5       372009                       # Per bank write bursts
system.mem_ctrls.dram.perBankRdBursts::6       372234                       # Per bank write bursts
system.mem_ctrls.dram.perBankRdBursts::7       372288                       # Per bank write bursts
system.mem_ctrls.dram.perBankRdBursts::8       372427                       # Per bank write bursts
system.mem_ctrls.dram.perBankRdBursts::9       372262                       # Per bank write bursts
system.mem_ctrls.dram.perBankRdBursts::10       371791                       # Per bank write bursts
system.mem_ctrls.dram.perBankRdBursts::11       371768                       # Per bank write bursts
system.mem_ctrls.dram.perBankRdBursts::12       371869                       # Per bank write bursts
system.mem_ctrls.dram.perBankRdBursts::13       371760                       # Per bank write bursts
system.mem_ctrls.dram.perBankRdBursts::14       371789                       # Per bank write bursts
system.mem_ctrls.dram.perBankRdBursts::15       371829                       # Per bank write bursts
system.mem_ctrls.dram.perBankWrBursts::0        90883                       # Per bank write bursts
system.mem_ctrls.dram.perBankWrBursts::1        90920                       # Per bank write bursts
system.mem_ctrls.dram.perBankWrBursts::2        90906                       # Per bank write bursts
system.mem_ctrls.dram.perBankWrBursts::3        90895                       # Per bank write bursts
system.mem_ctrls.dram.perBankWrBursts::4        90886                       # Per bank write bursts
system.mem_ctrls.dram.perBankWrBursts::5        90945                       # Per bank write bursts
system.mem_ctrls.dram.perBankWrBursts::6        91008                       # Per bank write bursts
system.mem_ctrls.dram.perBankWrBursts::7        91008                       # Per bank write bursts
system.mem_ctrls.dram.perBankWrBursts::8        91008                       # Per bank write bursts
system.mem_ctrls.dram.perBankWrBursts::9        90983                       # Per bank write bursts
system.mem_ctrls.dram.perBankWrBursts::10        90880                       # Per bank write bursts
system.mem_ctrls.dram.perBankWrBursts::11        90880                       # Per bank write bursts
system.mem_ctrls.dram.perBankWrBursts::12        90880                       # Per bank write bursts
system.mem_ctrls.dram.perBankWrBursts::13        90880                       # Per bank write bursts
system.mem_ctrls.dram.perBankWrBursts::14        90880                       # Per bank write bursts
system.mem_ctrls.dram.perBankWrBursts::15        90880                       # Per bank write bursts
system.mem_ctrls.dram.totQLat             31799736000                       # Total ticks spent queuing
system.mem_ctrls.dram.totBusLat           29757060000                       # Total ticks spent in databus transfers
system.mem_ctrls.dram.totMemAccLat       143388711000                       # Total ticks spent from burst creation until serviced by the DRAM
system.mem_ctrls.dram.avgQLat                 5343.23                       # Average queueing delay per DRAM burst
system.mem_ctrls.dram.avgBusLat               5000.00                       # Average bus latency per DRAM burst
system.mem_ctrls.dram.avgMemAccLat           24093.23                       # Average memory access latency per DRAM burst
system.mem_ctrls.dram.readRowHits             5514853                       # Number of row buffer hits during reads
system.mem_ctrls.dram.writeRowHits            1351984                       # Number of row buffer hits during writes
system.mem_ctrls.dram.readRowHitRate            92.66                       # Row buffer hit rate for reads
system.mem_ctrls.dram.writeRowHitRate           92.94                       # Row buffer hit rate for writes
system.mem_ctrls.dram.bytesPerActivate::samples       539296                       # Bytes accessed per row activation
system.mem_ctrls.dram.bytesPerActivate::mean   878.908681                       # Bytes accessed per row activation
system.mem_ctrls.dram.bytesPerActivate::gmean   790.582949                       # Bytes accessed per row activation
system.mem_ctrls.dram.bytesPerActivate::stdev   274.576875                       # Bytes accessed per row activation
system.mem_ctrls.dram.bytesPerActivate::0-127        10659      1.98%      1.98% # Bytes accessed per row activation
system.mem_ctrls.dram.bytesPerActivate::128-255        23266      4.31%      6.29% # Bytes accessed per row activation
system.mem_ctrls.dram.bytesPerActivate::256-383        12249      2.27%      8.56% # Bytes accessed per row activation
system.mem_ctrls.dram.bytesPerActivate::384-511        28776      5.34%     13.90% # Bytes accessed per row activation
system.mem_ctrls.dram.bytesPerActivate::512-639        26274      4.87%     18.77% # Bytes accessed per row activation
system.mem_ctrls.dram.bytesPerActivate::640-767        12817      2.38%     21.15% # Bytes accessed per row activation
system.mem_ctrls.dram.bytesPerActivate::768-895        16634      3.08%     24.23% # Bytes accessed per row activation
system.mem_ctrls.dram.bytesPerActivate::896-1023        16471      3.05%     27.28% # Bytes accessed per row activation
system.mem_ctrls.dram.bytesPerActivate::1024-1151       392150     72.72%    100.00% # Bytes accessed per row activation
system.mem_ctrls.dram.bytesPerActivate::total       539296                       # Bytes accessed per row activation
system.mem_ctrls.dram.bytesRead             380890368                       # Total number of bytes read from DRAM
system.mem_ctrls.dram.bytesWritten           93102208                       # Total number of bytes written to DRAM
system.mem_ctrls.dram.avgRdBW              776.948447                       # Average DRAM read bandwidth in MiBytes/s
system.mem_ctrls.dram.avgWrBW              189.911906                       # Average DRAM write bandwidth in MiBytes/s
system.mem_ctrls.dram.peakBW                 12800.00                       # Theoretical peak bandwidth in MiByte/s
system.mem_ctrls.dram.busUtil                    7.55                       # Data bus utilization in percentage
system.mem_ctrls.dram.busUtilRead                6.07                       # Data bus utilization in percentage for reads
system.mem_ctrls.dram.busUtilWrite               1.48                       # Data bus utilization in percentage for writes
system.mem_ctrls.dram.pageHitRate               92.72                       # Row buffer hit rate, read and write combined
system.mem_ctrls.dram.power_state.pwrStateResidencyTicks::UNDEFINED 490238920500                       # Cumulative time (in ticks) in various power states
system.mem_ctrls.dram.rank0.actEnergy      1925736540                       # Energy for activate commands per rank (pJ)
system.mem_ctrls.dram.rank0.preEnergy      1023553245                       # Energy for precharge commands per rank (pJ)
system.mem_ctrls.dram.rank0.readEnergy    21248047380                       # Energy for read commands per rank (pJ)
system.mem_ctrls.dram.rank0.writeEnergy    3797294220                       # Energy for write commands per rank (pJ)
system.mem_ctrls.dram.rank0.refreshEnergy 38698963680.000008                       # Energy for refresh commands per rank (pJ)
system.mem_ctrls.dram.rank0.actBackEnergy 112194937680                       # Energy for active background per rank (pJ)
system.mem_ctrls.dram.rank0.preBackEnergy  93771798240                       # Energy for precharge background per rank (pJ)
system.mem_ctrls.dram.rank0.actPowerDownEnergy            0                       # Energy for active power-down per rank (pJ)
system.mem_ctrls.dram.rank0.prePowerDownEnergy            0                       # Energy for precharge power-down per rank (pJ)
system.mem_ctrls.dram.rank0.selfRefreshEnergy            0                       # Energy for self refresh per rank (pJ)
system.mem_ctrls.dram.rank0.totalEnergy  272660330985                       # Total energy per rank (pJ)
system.mem_ctrls.dram.rank0.averagePower   556.178466                       # Core power per rank (mW)
system.mem_ctrls.dram.rank0.totalIdleTime            0                       # Total Idle time Per DRAM Rank
system.mem_ctrls.dram.rank0.pwrStateTime::IDLE 240214427000                       # Time in different power states
system.mem_ctrls.dram.rank0.pwrStateTime::REF  16370120000                       # Time in different power states
system.mem_ctrls.dram.rank0.pwrStateTime::SREF            0                       # Time in different power states
system.mem_ctrls.dram.rank0.pwrStateTime::PRE_PDN            0                       # Time in different power states
system.mem_ctrls.dram.rank0.pwrStateTime::ACT 233654373500                       # Time in different power states
system.mem_ctrls.dram.rank0.pwrStateTime::ACT_PDN            0                       # Time in different power states
system.mem_ctrls.dram.rank1.actEnergy      1924844040                       # Energy for activate commands per rank (pJ)
system.mem_ctrls.dram.rank1.preEnergy      1023075075                       # Energy for precharge commands per rank (pJ)
system.mem_ctrls.dram.rank1.readEnergy    21245034300                       # Energy for read commands per rank (pJ)
system.mem_ctrls.dram.rank1.writeEnergy    3796354620                       # Energy for write commands per rank (pJ)
system.mem_ctrls.dram.rank1.refreshEnergy 38698963680.000008                       # Energy for refresh commands per rank (pJ)
system.mem_ctrls.dram.rank1.actBackEnergy 112172882670                       # Energy for active background per rank (pJ)
system.mem_ctrls.dram.rank1.preBackEnergy  93790370880                       # Energy for precharge background per rank (pJ)
system.mem_ctrls.dram.rank1.actPowerDownEnergy            0                       # Energy for active power-down per rank (pJ)
system.mem_ctrls.dram.rank1.prePowerDownEnergy            0                       # Energy for precharge power-down per rank (pJ)
system.mem_ctrls.dram.rank1.selfRefreshEnergy            0                       # Energy for self refresh per rank (pJ)
system.mem_ctrls.dram.rank1.totalEnergy  272651525265                       # Total energy per rank (pJ)
system.mem_ctrls.dram.rank1.averagePower   556.160504                       # Core power per rank (mW)
system.mem_ctrls.dram.rank1.totalIdleTime            0                       # Total Idle time Per DRAM Rank
system.mem_ctrls.dram.rank1.pwrStateTime::IDLE 240262412000                       # Time in different power states
system.mem_ctrls.dram.rank1.pwrStateTime::REF  16370120000                       # Time in different power states
system.mem_ctrls.dram.rank1.pwrStateTime::SREF            0                       # Time in different power states
system.mem_ctrls.dram.rank1.pwrStateTime::PRE_PDN            0                       # Time in different power states
system.mem_ctrls.dram.rank1.pwrStateTime::ACT 233606388500                       # Time in different power states
system.mem_ctrls.dram.rank1.pwrStateTime::ACT_PDN            0                       # Time in different power states
system.mem_ctrls.power_state.pwrStateResidencyTicks::UNDEFINED 490238920500                       # Cumulative time (in ticks) in various power states
system.membus.trans_dist::ReadResp               1457                       # Transaction distribution
system.membus.trans_dist::WritebackDirty      5818919                       # Transaction distribution
system.membus.trans_dist::CleanEvict              413                       # Transaction distribution
system.membus.trans_dist::ReadExReq           5949955                       # Transaction distribution
system.membus.trans_dist::ReadExResp          5949955                       # Transaction distribution
system.membus.trans_dist::ReadSharedReq          1457                       # Transaction distribution
system.membus.pkt_count_system.l2.mem_side_port::system.mem_ctrls.port     17722156                       # Packet count per connected requestor and responder (bytes)
system.membus.pkt_count::total               17722156                       # Packet count per connected requestor and responder (bytes)
system.membus.pkt_size_system.l2.mem_side_port::system.mem_ctrls.port    188325296                       # Cumulative packet size per connected requestor and responder (bytes)
system.membus.pkt_size::total               188325296                       # Cumulative packet size per connected requestor and responder (bytes)
system.membus.snoops                                0                       # Total snoops (count)
system.membus.snoopTraffic                          0                       # Total snoop traffic (bytes)
system.membus.snoop_fanout::samples           5951412                       # Request fanout histogram
system.membus.snoop_fanout::mean                    0                       # Request fanout histogram
system.membus.snoop_fanout::stdev                   0                       # Request fanout histogram
system.membus.snoop_fanout::underflows              0      0.00%      0.00% # Request fanout histogram
system.membus.snoop_fanout::0                 5951412    100.00%    100.00% # Request fanout histogram
system.membus.snoop_fanout::1                       0      0.00%    100.00% # Request fanout histogram
system.membus.snoop_fanout::overflows               0      0.00%    100.00% # Request fanout histogram
system.membus.snoop_fanout::min_value               0                       # Request fanout histogram
system.membus.snoop_fanout::max_value               0                       # Request fanout histogram
system.membus.snoop_fanout::total             5951412                       # Request fanout histogram
system.membus.power_state.pwrStateResidencyTicks::UNDEFINED 490238920500                       # Cumulative time (in ticks) in various power states
system.membus.reqLayer0.occupancy         17592193000                       # Layer occupancy (ticks)
system.membus.reqLayer0.utilization               3.6                       # Layer utilization (%)
system.membus.respLayer1.occupancy        13483994000                       # Layer occupancy (ticks)
system.membus.respLayer1.utilization              2.8                       # Layer utilization (%)
system.tol2bus.trans_dist::ReadResp              1513                       # Transaction distribution
system.tol2bus.trans_dist::WritebackDirty     11764817                       # Transaction distribution
system.tol2bus.trans_dist::WritebackClean          254                       # Transaction distribution
system.tol2bus.trans_dist::CleanEvict            1635                       # Transaction distribution
system.tol2bus.trans_dist::ReadExReq          5949956                       # Transaction distribution
system.tol2bus.trans_dist::ReadExResp         5949955                       # Transaction distribution
system.tol2bus.trans_dist::ReadCleanReq          1260                       # Transaction distribution
system.tol2bus.trans_dist::ReadSharedReq          253                       # Transaction distribution
system.tol2bus.pkt_count_system.cpu.icache.mem_side_port::system.l2.cpu_side_port         2774                       # Packet count per connected requestor and responder (bytes)
system.tol2bus.pkt_count_system.cpu.dcache.mem_side_port::system.l2.cpu_side_port     17846529                       # Packet count per connected requestor and responder (bytes)
system.tol2bus.pkt_count::total              17849303                       # Packet count per connected requestor and responder (bytes)
system.tol2bus.pkt_size_system.cpu.icache.mem_side_port::system.l2.cpu_side_port        24224                       # Cumulative packet size per connected requestor and responder (bytes)
system.tol2bus.pkt_size_system.cpu.dcache.mem_side_port::system.l2.cpu_side_port    190337696                       # Cumulative packet size per connected requestor and responder (bytes)
system.tol2bus.pkt_size::total              190361920                       # Cumulative packet size per connected requestor and responder (bytes)
system.tol2bus.snoops                         5820340                       # Total snoops (count)
system.tol2bus.snoopTraffic                  93102704                       # Total snoop traffic (bytes)
system.tol2bus.snoop_fanout::samples         11771809                       # Request fanout histogram
system.tol2bus.snoop_fanout::mean            0.000088                       # Request fanout histogram
system.tol2bus.snoop_fanout::stdev           0.009381                       # Request fanout histogram
system.tol2bus.snoop_fanout::underflows             0      0.00%      0.00% # Request fanout histogram
system.tol2bus.snoop_fanout::0               11770776     99.99%     99.99% # Request fanout histogram
system.tol2bus.snoop_fanout::1                   1032      0.01%    100.00% # Request fanout histogram
system.tol2bus.snoop_fanout::2                      1      0.00%    100.00% # Request fanout histogram
system.tol2bus.snoop_fanout::overflows              0      0.00%    100.00% # Request fanout histogram
system.tol2bus.snoop_fanout::min_value              0                       # Request fanout histogram
system.tol2bus.snoop_fanout::max_value              2                       # Request fanout histogram
system.tol2bus.snoop_fanout::total           11771809                       # Request fanout histogram
system.tol2bus.power_state.pwrStateResidencyTicks::UNDEFINED 490238920500                       # Cumulative time (in ticks) in various power states
system.tol2bus.reqLayer0.occupancy         8921993500                       # Layer occupancy (ticks)
system.tol2bus.reqLayer0.utilization              1.8                       # Layer utilization (%)
system.tol2bus.respLayer0.occupancy           1260499                       # Layer occupancy (ticks)
system.tol2bus.respLayer0.utilization             0.0                       # Layer utilization (%)
system.tol2bus.respLayer1.occupancy        5950208499                       # Layer occupancy (ticks)
system.tol2bus.respLayer1.utilization             1.2                       # Layer utilization (%)
system.voltage_domain.voltage                       1                       # Voltage in Volts

---------- End Simulation Statistics   ----------
