
---------- Begin Simulation Statistics ----------
final_tick                                72412467500                       # Number of ticks from beginning of simulation (restored from checkpoints and never reset)
host_inst_rate                                 364034                       # Simulator instruction rate (inst/s)
host_mem_usage                                 670884                       # Number of bytes of host memory used
host_op_rate                                   425289                       # Simulator op (including micro ops) rate (op/s)
host_seconds                                   274.70                       # Real time elapsed on the host
host_tick_rate                              263606177                       # Simulator tick rate (ticks/s)
sim_freq                                 1000000000000                       # Frequency of simulated ticks
sim_insts                                   100000000                       # Number of instructions simulated
sim_ops                                     116826593                       # Number of ops (including micro ops) simulated
sim_seconds                                  0.072412                       # Number of seconds simulated
sim_ticks                                 72412467500                       # Number of ticks simulated
system.cpu.committedInsts                   100000000                       # Number of instructions committed
system.cpu.committedOps                     116826593                       # Number of ops (including micro ops) committed
system.cpu.cpi                               1.448249                       # CPI: cycles per instruction
system.cpu.discardedOps                        503744                       # Number of ops (including micro ops) which were discarded before commit
system.cpu.idleCycles                         9312896                       # Total number of cycles that the object has spent stopped
system.cpu.ipc                               0.690489                       # IPC: instructions per cycle
system.cpu.numCycles                        144824935                       # number of cpu cycles simulated
system.cpu.numFetchSuspends                         0                       # Number of times Execute suspended instruction fetching
system.cpu.numWorkItemsCompleted                    0                       # number of work items this cpu completed
system.cpu.numWorkItemsStarted                      0                       # number of work items this cpu started
system.cpu.op_class_0::No_OpClass                   0      0.00%      0.00% # Class of committed instruction
system.cpu.op_class_0::IntAlu                65231396     55.84%     55.84% # Class of committed instruction
system.cpu.op_class_0::IntMult                 602374      0.52%     56.35% # Class of committed instruction
system.cpu.op_class_0::IntDiv                       0      0.00%     56.35% # Class of committed instruction
system.cpu.op_class_0::FloatAdd                     0      0.00%     56.35% # Class of committed instruction
system.cpu.op_class_0::FloatCmp                     0      0.00%     56.35% # Class of committed instruction
system.cpu.op_class_0::FloatCvt                     0      0.00%     56.35% # Class of committed instruction
system.cpu.op_class_0::FloatMult                    0      0.00%     56.35% # Class of committed instruction
system.cpu.op_class_0::FloatMultAcc                 0      0.00%     56.35% # Class of committed instruction
system.cpu.op_class_0::FloatDiv                     0      0.00%     56.35% # Class of committed instruction
system.cpu.op_class_0::FloatMisc                    0      0.00%     56.35% # Class of committed instruction
system.cpu.op_class_0::FloatSqrt                    0      0.00%     56.35% # Class of committed instruction
system.cpu.op_class_0::SimdAdd                    380      0.00%     56.35% # Class of committed instruction
system.cpu.op_class_0::SimdAddAcc                   0      0.00%     56.35% # Class of committed instruction
system.cpu.op_class_0::SimdAlu                    470      0.00%     56.35% # Class of committed instruction
system.cpu.op_class_0::SimdCmp                    382      0.00%     56.35% # Class of committed instruction
system.cpu.op_class_0::SimdCvt                      0      0.00%     56.35% # Class of committed instruction
system.cpu.op_class_0::SimdMisc                    53      0.00%     56.35% # Class of committed instruction
system.cpu.op_class_0::SimdMult                     0      0.00%     56.35% # Class of committed instruction
system.cpu.op_class_0::SimdMultAcc                  0      0.00%     56.35% # Class of committed instruction
system.cpu.op_class_0::SimdShift                    0      0.00%     56.35% # Class of committed instruction
system.cpu.op_class_0::SimdShiftAcc                 0      0.00%     56.35% # Class of committed instruction
system.cpu.op_class_0::SimdDiv                      0      0.00%     56.35% # Class of committed instruction
system.cpu.op_class_0::SimdSqrt                     0      0.00%     56.35% # Class of committed instruction
system.cpu.op_class_0::SimdFloatAdd            783705      0.67%     57.02% # Class of committed instruction
system.cpu.op_class_0::SimdFloatAlu                 0      0.00%     57.02% # Class of committed instruction
system.cpu.op_class_0::SimdFloatCmp            769156      0.66%     57.68% # Class of committed instruction
system.cpu.op_class_0::SimdFloatCvt            311548      0.27%     57.95% # Class of committed instruction
system.cpu.op_class_0::SimdFloatDiv            152211      0.13%     58.08% # Class of committed instruction
system.cpu.op_class_0::SimdFloatMisc           950762      0.81%     58.89% # Class of committed instruction
system.cpu.op_class_0::SimdFloatMult            86008      0.07%     58.97% # Class of committed instruction
system.cpu.op_class_0::SimdFloatMultAcc         12802      0.01%     58.98% # Class of committed instruction
system.cpu.op_class_0::SimdFloatSqrt                0      0.00%     58.98% # Class of committed instruction
system.cpu.op_class_0::SimdReduceAdd                0      0.00%     58.98% # Class of committed instruction
system.cpu.op_class_0::SimdReduceAlu                0      0.00%     58.98% # Class of committed instruction
system.cpu.op_class_0::SimdReduceCmp                0      0.00%     58.98% # Class of committed instruction
system.cpu.op_class_0::SimdFloatReduceAdd            0      0.00%     58.98% # Class of committed instruction
system.cpu.op_class_0::SimdFloatReduceCmp            0      0.00%     58.98% # Class of committed instruction
system.cpu.op_class_0::SimdAes                      0      0.00%     58.98% # Class of committed instruction
system.cpu.op_class_0::SimdAesMix                   0      0.00%     58.98% # Class of committed instruction
system.cpu.op_class_0::SimdSha1Hash                 0      0.00%     58.98% # Class of committed instruction
system.cpu.op_class_0::SimdSha1Hash2                0      0.00%     58.98% # Class of committed instruction
system.cpu.op_class_0::SimdSha256Hash               0      0.00%     58.98% # Class of committed instruction
system.cpu.op_class_0::SimdSha256Hash2              0      0.00%     58.98% # Class of committed instruction
system.cpu.op_class_0::SimdShaSigma2                0      0.00%     58.98% # Class of committed instruction
system.cpu.op_class_0::SimdShaSigma3                0      0.00%     58.98% # Class of committed instruction
system.cpu.op_class_0::SimdPredAlu                  0      0.00%     58.98% # Class of committed instruction
system.cpu.op_class_0::MemRead               30319972     25.95%     84.93% # Class of committed instruction
system.cpu.op_class_0::MemWrite              17605374     15.07%    100.00% # Class of committed instruction
system.cpu.op_class_0::FloatMemRead                 0      0.00%    100.00% # Class of committed instruction
system.cpu.op_class_0::FloatMemWrite                0      0.00%    100.00% # Class of committed instruction
system.cpu.op_class_0::IprAccess                    0      0.00%    100.00% # Class of committed instruction
system.cpu.op_class_0::InstPrefetch                 0      0.00%    100.00% # Class of committed instruction
system.cpu.op_class_0::total                116826593                       # Class of committed instruction
system.cpu.tickCycles                       135512039                       # Number of cycles that the object actually ticked
system.cpu.workload.numSyscalls                    33                       # Number of system calls
system.membus.snoop_filter.hit_multi_requests            0                       # Number of requests hitting in the snoop filter with multiple (>1) holders of the requested data.
system.membus.snoop_filter.hit_multi_snoops            0                       # Number of snoops hitting in the snoop filter with multiple (>1) holders of the requested data.
system.membus.snoop_filter.hit_single_requests            0                       # Number of requests hitting in the snoop filter with a single holder of the requested data.
system.membus.snoop_filter.hit_single_snoops            0                       # Number of snoops hitting in the snoop filter with a single holder of the requested data.
system.membus.snoop_filter.tot_requests          5649                       # Total number of requests made to the snoop filter.
system.membus.snoop_filter.tot_snoops               0                       # Total number of snoops made to the snoop filter.
system.tol2bus.snoop_filter.hit_multi_requests         2835                       # Number of requests hitting in the snoop filter with multiple (>1) holders of the requested data.
system.tol2bus.snoop_filter.hit_multi_snoops            0                       # Number of snoops hitting in the snoop filter with multiple (>1) holders of the requested data.
system.tol2bus.snoop_filter.hit_single_requests       340707                       # Number of requests hitting in the snoop filter with a single holder of the requested data.
system.tol2bus.snoop_filter.hit_single_snoops            0                       # Number of snoops hitting in the snoop filter with a single holder of the requested data.
system.tol2bus.snoop_filter.tot_requests       682885                       # Total number of requests made to the snoop filter.
system.tol2bus.snoop_filter.tot_snoops              0                       # Total number of snoops made to the snoop filter.
system.clk_domain.clock                          1000                       # Clock period in ticks
system.cpu.branchPred.lookups                 6104564                       # Number of BP lookups
system.cpu.branchPred.condPredicted           5266228                       # Number of conditional branches predicted
system.cpu.branchPred.condIncorrect            188556                       # Number of conditional branches incorrect
system.cpu.branchPred.BTBLookups              3813306                       # Number of BTB lookups
system.cpu.branchPred.BTBHits                 3808493                       # Number of BTB hits
system.cpu.branchPred.BTBHitPct             99.873784                       # BTB Hit Percentage
system.cpu.branchPred.RASUsed                  257407                       # Number of times the RAS was used to get a target.
system.cpu.branchPred.RASIncorrect                  3                       # Number of incorrect RAS predictions.
system.cpu.branchPred.indirectLookups          154320                       # Number of indirect predictor lookups.
system.cpu.branchPred.indirectHits                237                       # Number of indirect target hits.
system.cpu.branchPred.indirectMisses           154083                       # Number of indirect misses.
system.cpu.branchPred.indirectMispredicted          199                       # Number of mispredicted indirect branches.
system.cpu.dcache.demand_hits::.cpu.data     47317140                       # number of demand (read+write) hits
system.cpu.dcache.demand_hits::total         47317140                       # number of demand (read+write) hits
system.cpu.dcache.overall_hits::.cpu.data     47342013                       # number of overall hits
system.cpu.dcache.overall_hits::total        47342013                       # number of overall hits
system.cpu.dcache.demand_misses::.cpu.data       469516                       # number of demand (read+write) misses
system.cpu.dcache.demand_misses::total         469516                       # number of demand (read+write) misses
system.cpu.dcache.overall_misses::.cpu.data       469862                       # number of overall misses
system.cpu.dcache.overall_misses::total        469862                       # number of overall misses
system.cpu.dcache.demand_miss_latency::.cpu.data   6566308000                       # number of demand (read+write) miss cycles
system.cpu.dcache.demand_miss_latency::total   6566308000                       # number of demand (read+write) miss cycles
system.cpu.dcache.overall_miss_latency::.cpu.data   6566308000                       # number of overall miss cycles
system.cpu.dcache.overall_miss_latency::total   6566308000                       # number of overall miss cycles
system.cpu.dcache.demand_accesses::.cpu.data     47786656                       # number of demand (read+write) accesses
system.cpu.dcache.demand_accesses::total     47786656                       # number of demand (read+write) accesses
system.cpu.dcache.overall_accesses::.cpu.data     47811875                       # number of overall (read+write) accesses
system.cpu.dcache.overall_accesses::total     47811875                       # number of overall (read+write) accesses
system.cpu.dcache.demand_miss_rate::.cpu.data     0.009825                       # miss rate for demand accesses
system.cpu.dcache.demand_miss_rate::total     0.009825                       # miss rate for demand accesses
system.cpu.dcache.overall_miss_rate::.cpu.data     0.009827                       # miss rate for overall accesses
system.cpu.dcache.overall_miss_rate::total     0.009827                       # miss rate for overall accesses
system.cpu.dcache.demand_avg_miss_latency::.cpu.data 13985.269938                       # average overall miss latency
system.cpu.dcache.demand_avg_miss_latency::total 13985.269938                       # average overall miss latency
system.cpu.dcache.overall_avg_miss_latency::.cpu.data 13974.971375                       # average overall miss latency
system.cpu.dcache.overall_avg_miss_latency::total 13974.971375                       # average overall miss latency
system.cpu.dcache.blocked_cycles::no_mshrs          184                       # number of cycles access was blocked
system.cpu.dcache.blocked_cycles::no_targets            0                       # number of cycles access was blocked
system.cpu.dcache.blocked::no_mshrs                 2                       # number of cycles access was blocked
system.cpu.dcache.blocked::no_targets               0                       # number of cycles access was blocked
system.cpu.dcache.avg_blocked_cycles::no_mshrs           92                       # average number of cycles each access was blocked
system.cpu.dcache.avg_blocked_cycles::no_targets          nan                       # average number of cycles each access was blocked
system.cpu.dcache.writebacks::.writebacks       321573                       # number of writebacks
system.cpu.dcache.writebacks::total            321573                       # number of writebacks
system.cpu.dcache.demand_mshr_hits::.cpu.data       142707                       # number of demand (read+write) MSHR hits
system.cpu.dcache.demand_mshr_hits::total       142707                       # number of demand (read+write) MSHR hits
system.cpu.dcache.overall_mshr_hits::.cpu.data       142707                       # number of overall MSHR hits
system.cpu.dcache.overall_mshr_hits::total       142707                       # number of overall MSHR hits
system.cpu.dcache.demand_mshr_misses::.cpu.data       326809                       # number of demand (read+write) MSHR misses
system.cpu.dcache.demand_mshr_misses::total       326809                       # number of demand (read+write) MSHR misses
system.cpu.dcache.overall_mshr_misses::.cpu.data       327146                       # number of overall MSHR misses
system.cpu.dcache.overall_mshr_misses::total       327146                       # number of overall MSHR misses
system.cpu.dcache.demand_mshr_miss_latency::.cpu.data   4656340500                       # number of demand (read+write) MSHR miss cycles
system.cpu.dcache.demand_mshr_miss_latency::total   4656340500                       # number of demand (read+write) MSHR miss cycles
system.cpu.dcache.overall_mshr_miss_latency::.cpu.data   4666325500                       # number of overall MSHR miss cycles
system.cpu.dcache.overall_mshr_miss_latency::total   4666325500                       # number of overall MSHR miss cycles
system.cpu.dcache.demand_mshr_miss_rate::.cpu.data     0.006839                       # mshr miss rate for demand accesses
system.cpu.dcache.demand_mshr_miss_rate::total     0.006839                       # mshr miss rate for demand accesses
system.cpu.dcache.overall_mshr_miss_rate::.cpu.data     0.006842                       # mshr miss rate for overall accesses
system.cpu.dcache.overall_mshr_miss_rate::total     0.006842                       # mshr miss rate for overall accesses
system.cpu.dcache.demand_avg_mshr_miss_latency::.cpu.data 14247.895560                       # average overall mshr miss latency
system.cpu.dcache.demand_avg_mshr_miss_latency::total 14247.895560                       # average overall mshr miss latency
system.cpu.dcache.overall_avg_mshr_miss_latency::.cpu.data 14263.740043                       # average overall mshr miss latency
system.cpu.dcache.overall_avg_mshr_miss_latency::total 14263.740043                       # average overall mshr miss latency
system.cpu.dcache.replacements                 326122                       # number of replacements
system.cpu.dcache.ReadReq_hits::.cpu.data     30109058                       # number of ReadReq hits
system.cpu.dcache.ReadReq_hits::total        30109058                       # number of ReadReq hits
system.cpu.dcache.ReadReq_misses::.cpu.data       203355                       # number of ReadReq misses
system.cpu.dcache.ReadReq_misses::total        203355                       # number of ReadReq misses
system.cpu.dcache.ReadReq_miss_latency::.cpu.data   3007856500                       # number of ReadReq miss cycles
system.cpu.dcache.ReadReq_miss_latency::total   3007856500                       # number of ReadReq miss cycles
system.cpu.dcache.ReadReq_accesses::.cpu.data     30312413                       # number of ReadReq accesses(hits+misses)
system.cpu.dcache.ReadReq_accesses::total     30312413                       # number of ReadReq accesses(hits+misses)
system.cpu.dcache.ReadReq_miss_rate::.cpu.data     0.006709                       # miss rate for ReadReq accesses
system.cpu.dcache.ReadReq_miss_rate::total     0.006709                       # miss rate for ReadReq accesses
system.cpu.dcache.ReadReq_avg_miss_latency::.cpu.data 14791.160778                       # average ReadReq miss latency
system.cpu.dcache.ReadReq_avg_miss_latency::total 14791.160778                       # average ReadReq miss latency
system.cpu.dcache.ReadReq_mshr_hits::.cpu.data        27986                       # number of ReadReq MSHR hits
system.cpu.dcache.ReadReq_mshr_hits::total        27986                       # number of ReadReq MSHR hits
system.cpu.dcache.ReadReq_mshr_misses::.cpu.data       175369                       # number of ReadReq MSHR misses
system.cpu.dcache.ReadReq_mshr_misses::total       175369                       # number of ReadReq MSHR misses
system.cpu.dcache.ReadReq_mshr_miss_latency::.cpu.data   2399516500                       # number of ReadReq MSHR miss cycles
system.cpu.dcache.ReadReq_mshr_miss_latency::total   2399516500                       # number of ReadReq MSHR miss cycles
system.cpu.dcache.ReadReq_mshr_miss_rate::.cpu.data     0.005785                       # mshr miss rate for ReadReq accesses
system.cpu.dcache.ReadReq_mshr_miss_rate::total     0.005785                       # mshr miss rate for ReadReq accesses
system.cpu.dcache.ReadReq_avg_mshr_miss_latency::.cpu.data 13682.671966                       # average ReadReq mshr miss latency
system.cpu.dcache.ReadReq_avg_mshr_miss_latency::total 13682.671966                       # average ReadReq mshr miss latency
system.cpu.dcache.WriteReq_hits::.cpu.data     17208082                       # number of WriteReq hits
system.cpu.dcache.WriteReq_hits::total       17208082                       # number of WriteReq hits
system.cpu.dcache.WriteReq_misses::.cpu.data       266161                       # number of WriteReq misses
system.cpu.dcache.WriteReq_misses::total       266161                       # number of WriteReq misses
system.cpu.dcache.WriteReq_miss_latency::.cpu.data   3558451500                       # number of WriteReq miss cycles
system.cpu.dcache.WriteReq_miss_latency::total   3558451500                       # number of WriteReq miss cycles
system.cpu.dcache.WriteReq_accesses::.cpu.data     17474243                       # number of WriteReq accesses(hits+misses)
system.cpu.dcache.WriteReq_accesses::total     17474243                       # number of WriteReq accesses(hits+misses)
system.cpu.dcache.WriteReq_miss_rate::.cpu.data     0.015232                       # miss rate for WriteReq accesses
system.cpu.dcache.WriteReq_miss_rate::total     0.015232                       # miss rate for WriteReq accesses
system.cpu.dcache.WriteReq_avg_miss_latency::.cpu.data 13369.545125                       # average WriteReq miss latency
system.cpu.dcache.WriteReq_avg_miss_latency::total 13369.545125                       # average WriteReq miss latency
system.cpu.dcache.WriteReq_mshr_hits::.cpu.data       114721                       # number of WriteReq MSHR hits
system.cpu.dcache.WriteReq_mshr_hits::total       114721                       # number of WriteReq MSHR hits
system.cpu.dcache.WriteReq_mshr_misses::.cpu.data       151440                       # number of WriteReq MSHR misses
system.cpu.dcache.WriteReq_mshr_misses::total       151440                       # number of WriteReq MSHR misses
system.cpu.dcache.WriteReq_mshr_miss_latency::.cpu.data   2256824000                       # number of WriteReq MSHR miss cycles
system.cpu.dcache.WriteReq_mshr_miss_latency::total   2256824000                       # number of WriteReq MSHR miss cycles
system.cpu.dcache.WriteReq_mshr_miss_rate::.cpu.data     0.008666                       # mshr miss rate for WriteReq accesses
system.cpu.dcache.WriteReq_mshr_miss_rate::total     0.008666                       # mshr miss rate for WriteReq accesses
system.cpu.dcache.WriteReq_avg_mshr_miss_latency::.cpu.data 14902.430005                       # average WriteReq mshr miss latency
system.cpu.dcache.WriteReq_avg_mshr_miss_latency::total 14902.430005                       # average WriteReq mshr miss latency
system.cpu.dcache.SoftPFReq_hits::.cpu.data        24873                       # number of SoftPFReq hits
system.cpu.dcache.SoftPFReq_hits::total         24873                       # number of SoftPFReq hits
system.cpu.dcache.SoftPFReq_misses::.cpu.data          346                       # number of SoftPFReq misses
system.cpu.dcache.SoftPFReq_misses::total          346                       # number of SoftPFReq misses
system.cpu.dcache.SoftPFReq_accesses::.cpu.data        25219                       # number of SoftPFReq accesses(hits+misses)
system.cpu.dcache.SoftPFReq_accesses::total        25219                       # number of SoftPFReq accesses(hits+misses)
system.cpu.dcache.SoftPFReq_miss_rate::.cpu.data     0.013720                       # miss rate for SoftPFReq accesses
system.cpu.dcache.SoftPFReq_miss_rate::total     0.013720                       # miss rate for SoftPFReq accesses
system.cpu.dcache.SoftPFReq_mshr_misses::.cpu.data          337                       # number of SoftPFReq MSHR misses
system.cpu.dcache.SoftPFReq_mshr_misses::total          337                       # number of SoftPFReq MSHR misses
system.cpu.dcache.SoftPFReq_mshr_miss_latency::.cpu.data      9985000                       # number of SoftPFReq MSHR miss cycles
system.cpu.dcache.SoftPFReq_mshr_miss_latency::total      9985000                       # number of SoftPFReq MSHR miss cycles
system.cpu.dcache.SoftPFReq_mshr_miss_rate::.cpu.data     0.013363                       # mshr miss rate for SoftPFReq accesses
system.cpu.dcache.SoftPFReq_mshr_miss_rate::total     0.013363                       # mshr miss rate for SoftPFReq accesses
system.cpu.dcache.SoftPFReq_avg_mshr_miss_latency::.cpu.data 29629.080119                       # average SoftPFReq mshr miss latency
system.cpu.dcache.SoftPFReq_avg_mshr_miss_latency::total 29629.080119                       # average SoftPFReq mshr miss latency
system.cpu.dcache.LoadLockedReq_hits::.cpu.data          166                       # number of LoadLockedReq hits
system.cpu.dcache.LoadLockedReq_hits::total          166                       # number of LoadLockedReq hits
system.cpu.dcache.LoadLockedReq_accesses::.cpu.data          166                       # number of LoadLockedReq accesses(hits+misses)
system.cpu.dcache.LoadLockedReq_accesses::total          166                       # number of LoadLockedReq accesses(hits+misses)
system.cpu.dcache.StoreCondReq_hits::.cpu.data          166                       # number of StoreCondReq hits
system.cpu.dcache.StoreCondReq_hits::total          166                       # number of StoreCondReq hits
system.cpu.dcache.StoreCondReq_accesses::.cpu.data          166                       # number of StoreCondReq accesses(hits+misses)
system.cpu.dcache.StoreCondReq_accesses::total          166                       # number of StoreCondReq accesses(hits+misses)
system.cpu.dcache.power_state.pwrStateResidencyTicks::UNDEFINED  72412467500                       # Cumulative time (in ticks) in various power states
system.cpu.dcache.tags.tagsinuse          1016.541009                       # Cycle average of tags in use
system.cpu.dcache.tags.total_refs            47669491                       # Total number of references to valid blocks.
system.cpu.dcache.tags.sampled_refs            327146                       # Sample count of references to valid blocks.
system.cpu.dcache.tags.avg_refs            145.713201                       # Average number of references to valid blocks.
system.cpu.dcache.tags.warmup_cycle            176500                       # Cycle when the warmup percentage was hit.
system.cpu.dcache.tags.occ_blocks::.cpu.data  1016.541009                       # Average occupied blocks per requestor
system.cpu.dcache.tags.occ_percent::.cpu.data     0.992716                       # Average percentage of cache occupancy
system.cpu.dcache.tags.occ_percent::total     0.992716                       # Average percentage of cache occupancy
system.cpu.dcache.tags.occ_task_id_blocks::1024         1024                       # Occupied blocks per task id
system.cpu.dcache.tags.age_task_id_blocks_1024::0           15                       # Occupied blocks per task id
system.cpu.dcache.tags.age_task_id_blocks_1024::1          111                       # Occupied blocks per task id
system.cpu.dcache.tags.age_task_id_blocks_1024::2          384                       # Occupied blocks per task id
system.cpu.dcache.tags.age_task_id_blocks_1024::3          372                       # Occupied blocks per task id
system.cpu.dcache.tags.age_task_id_blocks_1024::4          142                       # Occupied blocks per task id
system.cpu.dcache.tags.occ_task_id_percent::1024            1                       # Percentage of cache occupancy per task id
system.cpu.dcache.tags.tag_accesses          48139353                       # Number of tag accesses
system.cpu.dcache.tags.data_accesses         48139353                       # Number of data accesses
system.cpu.dcache.tags.power_state.pwrStateResidencyTicks::UNDEFINED  72412467500                       # Cumulative time (in ticks) in various power states
system.cpu.dtb.instHits                             0                       # ITB inst hits
system.cpu.dtb.instMisses                           0                       # ITB inst misses
system.cpu.dtb.readHits                             0                       # DTB read hits
system.cpu.dtb.readMisses                           0                       # DTB read misses
system.cpu.dtb.writeHits                            0                       # DTB write hits
system.cpu.dtb.writeMisses                          0                       # DTB write misses
system.cpu.dtb.inserts                              0                       # Number of times an entry is inserted into the TLB
system.cpu.dtb.flushTlb                             0                       # Number of times complete TLB was flushed
system.cpu.dtb.flushTlbMva                          0                       # Number of times TLB was flushed by MVA
system.cpu.dtb.flushTlbMvaAsid                      0                       # Number of times TLB was flushed by MVA & ASID
system.cpu.dtb.flushTlbAsid                         0                       # Number of times TLB was flushed by ASID
system.cpu.dtb.flushedEntries                       0                       # Number of entries that have been flushed from TLB
system.cpu.dtb.alignFaults                          0                       # Number of TLB faults due to alignment restrictions
system.cpu.dtb.prefetchFaults                       0                       # Number of TLB faults due to prefetch
system.cpu.dtb.domainFaults                         0                       # Number of TLB faults due to domain restrictions
system.cpu.dtb.permsFaults                          0                       # Number of TLB faults due to permissions restrictions
system.cpu.dtb.readAccesses                         0                       # DTB read accesses
system.cpu.dtb.writeAccesses                        0                       # DTB write accesses
system.cpu.dtb.instAccesses                         0                       # ITB inst accesses
system.cpu.dtb.hits                                 0                       # Total TLB (inst and data) hits
system.cpu.dtb.misses                               0                       # Total TLB (inst and data) misses
system.cpu.dtb.accesses                             0                       # Total TLB (inst and data) accesses
system.cpu.dtb.stage2_mmu.stage2_tlb.instHits            0                       # ITB inst hits
system.cpu.dtb.stage2_mmu.stage2_tlb.instMisses            0                       # ITB inst misses
system.cpu.dtb.stage2_mmu.stage2_tlb.readHits            0                       # DTB read hits
system.cpu.dtb.stage2_mmu.stage2_tlb.readMisses            0                       # DTB read misses
system.cpu.dtb.stage2_mmu.stage2_tlb.writeHits            0                       # DTB write hits
system.cpu.dtb.stage2_mmu.stage2_tlb.writeMisses            0                       # DTB write misses
system.cpu.dtb.stage2_mmu.stage2_tlb.inserts            0                       # Number of times an entry is inserted into the TLB
system.cpu.dtb.stage2_mmu.stage2_tlb.flushTlb            0                       # Number of times complete TLB was flushed
system.cpu.dtb.stage2_mmu.stage2_tlb.flushTlbMva            0                       # Number of times TLB was flushed by MVA
system.cpu.dtb.stage2_mmu.stage2_tlb.flushTlbMvaAsid            0                       # Number of times TLB was flushed by MVA & ASID
system.cpu.dtb.stage2_mmu.stage2_tlb.flushTlbAsid            0                       # Number of times TLB was flushed by ASID
system.cpu.dtb.stage2_mmu.stage2_tlb.flushedEntries            0                       # Number of entries that have been flushed from TLB
system.cpu.dtb.stage2_mmu.stage2_tlb.alignFaults            0                       # Number of TLB faults due to alignment restrictions
system.cpu.dtb.stage2_mmu.stage2_tlb.prefetchFaults            0                       # Number of TLB faults due to prefetch
system.cpu.dtb.stage2_mmu.stage2_tlb.domainFaults            0                       # Number of TLB faults due to domain restrictions
system.cpu.dtb.stage2_mmu.stage2_tlb.permsFaults            0                       # Number of TLB faults due to permissions restrictions
system.cpu.dtb.stage2_mmu.stage2_tlb.readAccesses            0                       # DTB read accesses
system.cpu.dtb.stage2_mmu.stage2_tlb.writeAccesses            0                       # DTB write accesses
system.cpu.dtb.stage2_mmu.stage2_tlb.instAccesses            0                       # ITB inst accesses
system.cpu.dtb.stage2_mmu.stage2_tlb.hits            0                       # Total TLB (inst and data) hits
system.cpu.dtb.stage2_mmu.stage2_tlb.misses            0                       # Total TLB (inst and data) misses
system.cpu.dtb.stage2_mmu.stage2_tlb.accesses            0                       # Total TLB (inst and data) accesses
system.cpu.dtb.stage2_mmu.stage2_tlb.walker.walks            0                       # Table walker walks requested
system.cpu.dtb.stage2_mmu.stage2_tlb.walker.requestOrigin_Requested::Data            0                       # Table walker requests started/completed, data/inst
system.cpu.dtb.stage2_mmu.stage2_tlb.walker.requestOrigin_Requested::Inst            0                       # Table walker requests started/completed, data/inst
system.cpu.dtb.stage2_mmu.stage2_tlb.walker.requestOrigin_Requested::total            0                       # Table walker requests started/completed, data/inst
system.cpu.dtb.stage2_mmu.stage2_tlb.walker.requestOrigin_Completed::Data            0                       # Table walker requests started/completed, data/inst
system.cpu.dtb.stage2_mmu.stage2_tlb.walker.requestOrigin_Completed::Inst            0                       # Table walker requests started/completed, data/inst
system.cpu.dtb.stage2_mmu.stage2_tlb.walker.requestOrigin_Completed::total            0                       # Table walker requests started/completed, data/inst
system.cpu.dtb.stage2_mmu.stage2_tlb.walker.requestOrigin::total            0                       # Table walker requests started/completed, data/inst
system.cpu.dtb.stage2_mmu.stage2_tlb.walker.power_state.pwrStateResidencyTicks::UNDEFINED  72412467500                       # Cumulative time (in ticks) in various power states
system.cpu.dtb.walker.walks                         0                       # Table walker walks requested
system.cpu.dtb.walker.requestOrigin_Requested::Data            0                       # Table walker requests started/completed, data/inst
system.cpu.dtb.walker.requestOrigin_Requested::Inst            0                       # Table walker requests started/completed, data/inst
system.cpu.dtb.walker.requestOrigin_Requested::total            0                       # Table walker requests started/completed, data/inst
system.cpu.dtb.walker.requestOrigin_Completed::Data            0                       # Table walker requests started/completed, data/inst
system.cpu.dtb.walker.requestOrigin_Completed::Inst            0                       # Table walker requests started/completed, data/inst
system.cpu.dtb.walker.requestOrigin_Completed::total            0                       # Table walker requests started/completed, data/inst
system.cpu.dtb.walker.requestOrigin::total            0                       # Table walker requests started/completed, data/inst
system.cpu.dtb.walker.power_state.pwrStateResidencyTicks::UNDEFINED  72412467500                       # Cumulative time (in ticks) in various power states
system.cpu.fetch2.intInstructions            37762911                       # Number of integer instructions successfully decoded
system.cpu.fetch2.fpInstructions                    0                       # Number of floating point instructions successfully decoded
system.cpu.fetch2.vecInstructions                   0                       # Number of SIMD instructions successfully decoded
system.cpu.fetch2.loadInstructions           17245124                       # Number of memory load instructions successfully decoded
system.cpu.fetch2.storeInstructions          14150752                       # Number of memory store instructions successfully decoded
system.cpu.fetch2.amoInstructions                   0                       # Number of memory atomic instructions successfully decoded
system.cpu.icache.demand_hits::.cpu.inst     15455804                       # number of demand (read+write) hits
system.cpu.icache.demand_hits::total         15455804                       # number of demand (read+write) hits
system.cpu.icache.overall_hits::.cpu.inst     15455804                       # number of overall hits
system.cpu.icache.overall_hits::total        15455804                       # number of overall hits
system.cpu.icache.demand_misses::.cpu.inst        15036                       # number of demand (read+write) misses
system.cpu.icache.demand_misses::total          15036                       # number of demand (read+write) misses
system.cpu.icache.overall_misses::.cpu.inst        15036                       # number of overall misses
system.cpu.icache.overall_misses::total         15036                       # number of overall misses
system.cpu.icache.demand_miss_latency::.cpu.inst    273228000                       # number of demand (read+write) miss cycles
system.cpu.icache.demand_miss_latency::total    273228000                       # number of demand (read+write) miss cycles
system.cpu.icache.overall_miss_latency::.cpu.inst    273228000                       # number of overall miss cycles
system.cpu.icache.overall_miss_latency::total    273228000                       # number of overall miss cycles
system.cpu.icache.demand_accesses::.cpu.inst     15470840                       # number of demand (read+write) accesses
system.cpu.icache.demand_accesses::total     15470840                       # number of demand (read+write) accesses
system.cpu.icache.overall_accesses::.cpu.inst     15470840                       # number of overall (read+write) accesses
system.cpu.icache.overall_accesses::total     15470840                       # number of overall (read+write) accesses
system.cpu.icache.demand_miss_rate::.cpu.inst     0.000972                       # miss rate for demand accesses
system.cpu.icache.demand_miss_rate::total     0.000972                       # miss rate for demand accesses
system.cpu.icache.overall_miss_rate::.cpu.inst     0.000972                       # miss rate for overall accesses
system.cpu.icache.overall_miss_rate::total     0.000972                       # miss rate for overall accesses
system.cpu.icache.demand_avg_miss_latency::.cpu.inst 18171.588188                       # average overall miss latency
system.cpu.icache.demand_avg_miss_latency::total 18171.588188                       # average overall miss latency
system.cpu.icache.overall_avg_miss_latency::.cpu.inst 18171.588188                       # average overall miss latency
system.cpu.icache.overall_avg_miss_latency::total 18171.588188                       # average overall miss latency
system.cpu.icache.blocked_cycles::no_mshrs            0                       # number of cycles access was blocked
system.cpu.icache.blocked_cycles::no_targets            0                       # number of cycles access was blocked
system.cpu.icache.blocked::no_mshrs                 0                       # number of cycles access was blocked
system.cpu.icache.blocked::no_targets               0                       # number of cycles access was blocked
system.cpu.icache.avg_blocked_cycles::no_mshrs          nan                       # average number of cycles each access was blocked
system.cpu.icache.avg_blocked_cycles::no_targets          nan                       # average number of cycles each access was blocked
system.cpu.icache.writebacks::.writebacks        14581                       # number of writebacks
system.cpu.icache.writebacks::total             14581                       # number of writebacks
system.cpu.icache.demand_mshr_misses::.cpu.inst        15036                       # number of demand (read+write) MSHR misses
system.cpu.icache.demand_mshr_misses::total        15036                       # number of demand (read+write) MSHR misses
system.cpu.icache.overall_mshr_misses::.cpu.inst        15036                       # number of overall MSHR misses
system.cpu.icache.overall_mshr_misses::total        15036                       # number of overall MSHR misses
system.cpu.icache.demand_mshr_miss_latency::.cpu.inst    258192000                       # number of demand (read+write) MSHR miss cycles
system.cpu.icache.demand_mshr_miss_latency::total    258192000                       # number of demand (read+write) MSHR miss cycles
system.cpu.icache.overall_mshr_miss_latency::.cpu.inst    258192000                       # number of overall MSHR miss cycles
system.cpu.icache.overall_mshr_miss_latency::total    258192000                       # number of overall MSHR miss cycles
system.cpu.icache.demand_mshr_miss_rate::.cpu.inst     0.000972                       # mshr miss rate for demand accesses
system.cpu.icache.demand_mshr_miss_rate::total     0.000972                       # mshr miss rate for demand accesses
system.cpu.icache.overall_mshr_miss_rate::.cpu.inst     0.000972                       # mshr miss rate for overall accesses
system.cpu.icache.overall_mshr_miss_rate::total     0.000972                       # mshr miss rate for overall accesses
system.cpu.icache.demand_avg_mshr_miss_latency::.cpu.inst 17171.588188                       # average overall mshr miss latency
system.cpu.icache.demand_avg_mshr_miss_latency::total 17171.588188                       # average overall mshr miss latency
system.cpu.icache.overall_avg_mshr_miss_latency::.cpu.inst 17171.588188                       # average overall mshr miss latency
system.cpu.icache.overall_avg_mshr_miss_latency::total 17171.588188                       # average overall mshr miss latency
system.cpu.icache.replacements                  14581                       # number of replacements
system.cpu.icache.ReadReq_hits::.cpu.inst     15455804                       # number of ReadReq hits
system.cpu.icache.ReadReq_hits::total        15455804                       # number of ReadReq hits
system.cpu.icache.ReadReq_misses::.cpu.inst        15036                       # number of ReadReq misses
system.cpu.icache.ReadReq_misses::total         15036                       # number of ReadReq misses
system.cpu.icache.ReadReq_miss_latency::.cpu.inst    273228000                       # number of ReadReq miss cycles
system.cpu.icache.ReadReq_miss_latency::total    273228000                       # number of ReadReq miss cycles
system.cpu.icache.ReadReq_accesses::.cpu.inst     15470840                       # number of ReadReq accesses(hits+misses)
system.cpu.icache.ReadReq_accesses::total     15470840                       # number of ReadReq accesses(hits+misses)
system.cpu.icache.ReadReq_miss_rate::.cpu.inst     0.000972                       # miss rate for ReadReq accesses
system.cpu.icache.ReadReq_miss_rate::total     0.000972                       # miss rate for ReadReq accesses
system.cpu.icache.ReadReq_avg_miss_latency::.cpu.inst 18171.588188                       # average ReadReq miss latency
system.cpu.icache.ReadReq_avg_miss_latency::total 18171.588188                       # average ReadReq miss latency
system.cpu.icache.ReadReq_mshr_misses::.cpu.inst        15036                       # number of ReadReq MSHR misses
system.cpu.icache.ReadReq_mshr_misses::total        15036                       # number of ReadReq MSHR misses
system.cpu.icache.ReadReq_mshr_miss_latency::.cpu.inst    258192000                       # number of ReadReq MSHR miss cycles
system.cpu.icache.ReadReq_mshr_miss_latency::total    258192000                       # number of ReadReq MSHR miss cycles
system.cpu.icache.ReadReq_mshr_miss_rate::.cpu.inst     0.000972                       # mshr miss rate for ReadReq accesses
system.cpu.icache.ReadReq_mshr_miss_rate::total     0.000972                       # mshr miss rate for ReadReq accesses
system.cpu.icache.ReadReq_avg_mshr_miss_latency::.cpu.inst 17171.588188                       # average ReadReq mshr miss latency
system.cpu.icache.ReadReq_avg_mshr_miss_latency::total 17171.588188                       # average ReadReq mshr miss latency
system.cpu.icache.power_state.pwrStateResidencyTicks::UNDEFINED  72412467500                       # Cumulative time (in ticks) in various power states
system.cpu.icache.tags.tagsinuse           454.693871                       # Cycle average of tags in use
system.cpu.icache.tags.total_refs            15470840                       # Total number of references to valid blocks.
system.cpu.icache.tags.sampled_refs             15036                       # Sample count of references to valid blocks.
system.cpu.icache.tags.avg_refs           1028.919926                       # Average number of references to valid blocks.
system.cpu.icache.tags.warmup_cycle             87500                       # Cycle when the warmup percentage was hit.
system.cpu.icache.tags.occ_blocks::.cpu.inst   454.693871                       # Average occupied blocks per requestor
system.cpu.icache.tags.occ_percent::.cpu.inst     0.888074                       # Average percentage of cache occupancy
system.cpu.icache.tags.occ_percent::total     0.888074                       # Average percentage of cache occupancy
system.cpu.icache.tags.occ_task_id_blocks::1024          455                       # Occupied blocks per task id
system.cpu.icache.tags.age_task_id_blocks_1024::2           12                       # Occupied blocks per task id
system.cpu.icache.tags.age_task_id_blocks_1024::3            9                       # Occupied blocks per task id
system.cpu.icache.tags.age_task_id_blocks_1024::4          434                       # Occupied blocks per task id
system.cpu.icache.tags.occ_task_id_percent::1024     0.888672                       # Percentage of cache occupancy per task id
system.cpu.icache.tags.tag_accesses          15485876                       # Number of tag accesses
system.cpu.icache.tags.data_accesses         15485876                       # Number of data accesses
system.cpu.icache.tags.power_state.pwrStateResidencyTicks::UNDEFINED  72412467500                       # Cumulative time (in ticks) in various power states
system.cpu.itb.instHits                             0                       # ITB inst hits
system.cpu.itb.instMisses                           0                       # ITB inst misses
system.cpu.itb.readHits                             0                       # DTB read hits
system.cpu.itb.readMisses                           0                       # DTB read misses
system.cpu.itb.writeHits                            0                       # DTB write hits
system.cpu.itb.writeMisses                          0                       # DTB write misses
system.cpu.itb.inserts                              0                       # Number of times an entry is inserted into the TLB
system.cpu.itb.flushTlb                             0                       # Number of times complete TLB was flushed
system.cpu.itb.flushTlbMva                          0                       # Number of times TLB was flushed by MVA
system.cpu.itb.flushTlbMvaAsid                      0                       # Number of times TLB was flushed by MVA & ASID
system.cpu.itb.flushTlbAsid                         0                       # Number of times TLB was flushed by ASID
system.cpu.itb.flushedEntries                       0                       # Number of entries that have been flushed from TLB
system.cpu.itb.alignFaults                          0                       # Number of TLB faults due to alignment restrictions
system.cpu.itb.prefetchFaults                       0                       # Number of TLB faults due to prefetch
system.cpu.itb.domainFaults                         0                       # Number of TLB faults due to domain restrictions
system.cpu.itb.permsFaults                          0                       # Number of TLB faults due to permissions restrictions
system.cpu.itb.readAccesses                         0                       # DTB read accesses
system.cpu.itb.writeAccesses                        0                       # DTB write accesses
system.cpu.itb.instAccesses                         0                       # ITB inst accesses
system.cpu.itb.hits                                 0                       # Total TLB (inst and data) hits
system.cpu.itb.misses                               0                       # Total TLB (inst and data) misses
system.cpu.itb.accesses                             0                       # Total TLB (inst and data) accesses
system.cpu.itb.stage2_mmu.stage2_tlb.instHits            0                       # ITB inst hits
system.cpu.itb.stage2_mmu.stage2_tlb.instMisses            0                       # ITB inst misses
system.cpu.itb.stage2_mmu.stage2_tlb.readHits            0                       # DTB read hits
system.cpu.itb.stage2_mmu.stage2_tlb.readMisses            0                       # DTB read misses
system.cpu.itb.stage2_mmu.stage2_tlb.writeHits            0                       # DTB write hits
system.cpu.itb.stage2_mmu.stage2_tlb.writeMisses            0                       # DTB write misses
system.cpu.itb.stage2_mmu.stage2_tlb.inserts            0                       # Number of times an entry is inserted into the TLB
system.cpu.itb.stage2_mmu.stage2_tlb.flushTlb            0                       # Number of times complete TLB was flushed
system.cpu.itb.stage2_mmu.stage2_tlb.flushTlbMva            0                       # Number of times TLB was flushed by MVA
system.cpu.itb.stage2_mmu.stage2_tlb.flushTlbMvaAsid            0                       # Number of times TLB was flushed by MVA & ASID
system.cpu.itb.stage2_mmu.stage2_tlb.flushTlbAsid            0                       # Number of times TLB was flushed by ASID
system.cpu.itb.stage2_mmu.stage2_tlb.flushedEntries            0                       # Number of entries that have been flushed from TLB
system.cpu.itb.stage2_mmu.stage2_tlb.alignFaults            0                       # Number of TLB faults due to alignment restrictions
system.cpu.itb.stage2_mmu.stage2_tlb.prefetchFaults            0                       # Number of TLB faults due to prefetch
system.cpu.itb.stage2_mmu.stage2_tlb.domainFaults            0                       # Number of TLB faults due to domain restrictions
system.cpu.itb.stage2_mmu.stage2_tlb.permsFaults            0                       # Number of TLB faults due to permissions restrictions
system.cpu.itb.stage2_mmu.stage2_tlb.readAccesses            0                       # DTB read accesses
system.cpu.itb.stage2_mmu.stage2_tlb.writeAccesses            0                       # DTB write accesses
system.cpu.itb.stage2_mmu.stage2_tlb.instAccesses            0                       # ITB inst accesses
system.cpu.itb.stage2_mmu.stage2_tlb.hits            0                       # Total TLB (inst and data) hits
system.cpu.itb.stage2_mmu.stage2_tlb.misses            0                       # Total TLB (inst and data) misses
system.cpu.itb.stage2_mmu.stage2_tlb.accesses            0                       # Total TLB (inst and data) accesses
system.cpu.itb.stage2_mmu.stage2_tlb.walker.walks            0                       # Table walker walks requested
system.cpu.itb.stage2_mmu.stage2_tlb.walker.requestOrigin_Requested::Data            0                       # Table walker requests started/completed, data/inst
system.cpu.itb.stage2_mmu.stage2_tlb.walker.requestOrigin_Requested::Inst            0                       # Table walker requests started/completed, data/inst
system.cpu.itb.stage2_mmu.stage2_tlb.walker.requestOrigin_Requested::total            0                       # Table walker requests started/completed, data/inst
system.cpu.itb.stage2_mmu.stage2_tlb.walker.requestOrigin_Completed::Data            0                       # Table walker requests started/completed, data/inst
system.cpu.itb.stage2_mmu.stage2_tlb.walker.requestOrigin_Completed::Inst            0                       # Table walker requests started/completed, data/inst
system.cpu.itb.stage2_mmu.stage2_tlb.walker.requestOrigin_Completed::total            0                       # Table walker requests started/completed, data/inst
system.cpu.itb.stage2_mmu.stage2_tlb.walker.requestOrigin::total            0                       # Table walker requests started/completed, data/inst
system.cpu.itb.stage2_mmu.stage2_tlb.walker.power_state.pwrStateResidencyTicks::UNDEFINED  72412467500                       # Cumulative time (in ticks) in various power states
system.cpu.itb.walker.walks                         0                       # Table walker walks requested
system.cpu.itb.walker.requestOrigin_Requested::Data            0                       # Table walker requests started/completed, data/inst
system.cpu.itb.walker.requestOrigin_Requested::Inst            0                       # Table walker requests started/completed, data/inst
system.cpu.itb.walker.requestOrigin_Requested::total            0                       # Table walker requests started/completed, data/inst
system.cpu.itb.walker.requestOrigin_Completed::Data            0                       # Table walker requests started/completed, data/inst
system.cpu.itb.walker.requestOrigin_Completed::Inst            0                       # Table walker requests started/completed, data/inst
system.cpu.itb.walker.requestOrigin_Completed::total            0                       # Table walker requests started/completed, data/inst
system.cpu.itb.walker.requestOrigin::total            0                       # Table walker requests started/completed, data/inst
system.cpu.itb.walker.power_state.pwrStateResidencyTicks::UNDEFINED  72412467500                       # Cumulative time (in ticks) in various power states
system.cpu.power_state.pwrStateResidencyTicks::ON  72412467500                       # Cumulative time (in ticks) in various power states
system.cpu.thread0.numInsts                 100000000                       # Number of Instructions committed
system.cpu.thread0.numOps                   116826593                       # Number of Ops committed
system.cpu.thread0.numMemRefs                       0                       # Number of Memory References
system.cpu_clk_domain.clock                       500                       # Clock period in ticks
system.cpu_voltage_domain.voltage                   1                       # Voltage in Volts
system.l2.demand_hits::.cpu.inst                13858                       # number of demand (read+write) hits
system.l2.demand_hits::.cpu.data               322668                       # number of demand (read+write) hits
system.l2.demand_hits::total                   336526                       # number of demand (read+write) hits
system.l2.overall_hits::.cpu.inst               13858                       # number of overall hits
system.l2.overall_hits::.cpu.data              322668                       # number of overall hits
system.l2.overall_hits::total                  336526                       # number of overall hits
system.l2.demand_misses::.cpu.inst               1178                       # number of demand (read+write) misses
system.l2.demand_misses::.cpu.data               4478                       # number of demand (read+write) misses
system.l2.demand_misses::total                   5656                       # number of demand (read+write) misses
system.l2.overall_misses::.cpu.inst              1178                       # number of overall misses
system.l2.overall_misses::.cpu.data              4478                       # number of overall misses
system.l2.overall_misses::total                  5656                       # number of overall misses
system.l2.demand_miss_latency::.cpu.inst     89209500                       # number of demand (read+write) miss cycles
system.l2.demand_miss_latency::.cpu.data    342142000                       # number of demand (read+write) miss cycles
system.l2.demand_miss_latency::total        431351500                       # number of demand (read+write) miss cycles
system.l2.overall_miss_latency::.cpu.inst     89209500                       # number of overall miss cycles
system.l2.overall_miss_latency::.cpu.data    342142000                       # number of overall miss cycles
system.l2.overall_miss_latency::total       431351500                       # number of overall miss cycles
system.l2.demand_accesses::.cpu.inst            15036                       # number of demand (read+write) accesses
system.l2.demand_accesses::.cpu.data           327146                       # number of demand (read+write) accesses
system.l2.demand_accesses::total               342182                       # number of demand (read+write) accesses
system.l2.overall_accesses::.cpu.inst           15036                       # number of overall (read+write) accesses
system.l2.overall_accesses::.cpu.data          327146                       # number of overall (read+write) accesses
system.l2.overall_accesses::total              342182                       # number of overall (read+write) accesses
system.l2.demand_miss_rate::.cpu.inst        0.078345                       # miss rate for demand accesses
system.l2.demand_miss_rate::.cpu.data        0.013688                       # miss rate for demand accesses
system.l2.demand_miss_rate::total            0.016529                       # miss rate for demand accesses
system.l2.overall_miss_rate::.cpu.inst       0.078345                       # miss rate for overall accesses
system.l2.overall_miss_rate::.cpu.data       0.013688                       # miss rate for overall accesses
system.l2.overall_miss_rate::total           0.016529                       # miss rate for overall accesses
system.l2.demand_avg_miss_latency::.cpu.inst 75729.626486                       # average overall miss latency
system.l2.demand_avg_miss_latency::.cpu.data 76405.091559                       # average overall miss latency
system.l2.demand_avg_miss_latency::total 76264.409477                       # average overall miss latency
system.l2.overall_avg_miss_latency::.cpu.inst 75729.626486                       # average overall miss latency
system.l2.overall_avg_miss_latency::.cpu.data 76405.091559                       # average overall miss latency
system.l2.overall_avg_miss_latency::total 76264.409477                       # average overall miss latency
system.l2.blocked_cycles::no_mshrs                  0                       # number of cycles access was blocked
system.l2.blocked_cycles::no_targets                0                       # number of cycles access was blocked
system.l2.blocked::no_mshrs                         0                       # number of cycles access was blocked
system.l2.blocked::no_targets                       0                       # number of cycles access was blocked
system.l2.avg_blocked_cycles::no_mshrs            nan                       # average number of cycles each access was blocked
system.l2.avg_blocked_cycles::no_targets          nan                       # average number of cycles each access was blocked
system.l2.demand_mshr_hits::.cpu.inst               2                       # number of demand (read+write) MSHR hits
system.l2.demand_mshr_hits::.cpu.data               5                       # number of demand (read+write) MSHR hits
system.l2.demand_mshr_hits::total                   7                       # number of demand (read+write) MSHR hits
system.l2.overall_mshr_hits::.cpu.inst              2                       # number of overall MSHR hits
system.l2.overall_mshr_hits::.cpu.data              5                       # number of overall MSHR hits
system.l2.overall_mshr_hits::total                  7                       # number of overall MSHR hits
system.l2.demand_mshr_misses::.cpu.inst          1176                       # number of demand (read+write) MSHR misses
system.l2.demand_mshr_misses::.cpu.data          4473                       # number of demand (read+write) MSHR misses
system.l2.demand_mshr_misses::total              5649                       # number of demand (read+write) MSHR misses
system.l2.overall_mshr_misses::.cpu.inst         1176                       # number of overall MSHR misses
system.l2.overall_mshr_misses::.cpu.data         4473                       # number of overall MSHR misses
system.l2.overall_mshr_misses::total             5649                       # number of overall MSHR misses
system.l2.demand_mshr_miss_latency::.cpu.inst     77367500                       # number of demand (read+write) MSHR miss cycles
system.l2.demand_mshr_miss_latency::.cpu.data    297079500                       # number of demand (read+write) MSHR miss cycles
system.l2.demand_mshr_miss_latency::total    374447000                       # number of demand (read+write) MSHR miss cycles
system.l2.overall_mshr_miss_latency::.cpu.inst     77367500                       # number of overall MSHR miss cycles
system.l2.overall_mshr_miss_latency::.cpu.data    297079500                       # number of overall MSHR miss cycles
system.l2.overall_mshr_miss_latency::total    374447000                       # number of overall MSHR miss cycles
system.l2.demand_mshr_miss_rate::.cpu.inst     0.078212                       # mshr miss rate for demand accesses
system.l2.demand_mshr_miss_rate::.cpu.data     0.013673                       # mshr miss rate for demand accesses
system.l2.demand_mshr_miss_rate::total       0.016509                       # mshr miss rate for demand accesses
system.l2.overall_mshr_miss_rate::.cpu.inst     0.078212                       # mshr miss rate for overall accesses
system.l2.overall_mshr_miss_rate::.cpu.data     0.013673                       # mshr miss rate for overall accesses
system.l2.overall_mshr_miss_rate::total      0.016509                       # mshr miss rate for overall accesses
system.l2.demand_avg_mshr_miss_latency::.cpu.inst 65788.690476                       # average overall mshr miss latency
system.l2.demand_avg_mshr_miss_latency::.cpu.data 66416.163649                       # average overall mshr miss latency
system.l2.demand_avg_mshr_miss_latency::total 66285.537263                       # average overall mshr miss latency
system.l2.overall_avg_mshr_miss_latency::.cpu.inst 65788.690476                       # average overall mshr miss latency
system.l2.overall_avg_mshr_miss_latency::.cpu.data 66416.163649                       # average overall mshr miss latency
system.l2.overall_avg_mshr_miss_latency::total 66285.537263                       # average overall mshr miss latency
system.l2.replacements                              0                       # number of replacements
system.l2.WritebackDirty_hits::.writebacks       321573                       # number of WritebackDirty hits
system.l2.WritebackDirty_hits::total           321573                       # number of WritebackDirty hits
system.l2.WritebackDirty_accesses::.writebacks       321573                       # number of WritebackDirty accesses(hits+misses)
system.l2.WritebackDirty_accesses::total       321573                       # number of WritebackDirty accesses(hits+misses)
system.l2.WritebackClean_hits::.writebacks        13750                       # number of WritebackClean hits
system.l2.WritebackClean_hits::total            13750                       # number of WritebackClean hits
system.l2.WritebackClean_accesses::.writebacks        13750                       # number of WritebackClean accesses(hits+misses)
system.l2.WritebackClean_accesses::total        13750                       # number of WritebackClean accesses(hits+misses)
system.l2.ReadExReq_hits::.cpu.data            148637                       # number of ReadExReq hits
system.l2.ReadExReq_hits::total                148637                       # number of ReadExReq hits
system.l2.ReadExReq_misses::.cpu.data            3681                       # number of ReadExReq misses
system.l2.ReadExReq_misses::total                3681                       # number of ReadExReq misses
system.l2.ReadExReq_miss_latency::.cpu.data    278330000                       # number of ReadExReq miss cycles
system.l2.ReadExReq_miss_latency::total     278330000                       # number of ReadExReq miss cycles
system.l2.ReadExReq_accesses::.cpu.data        152318                       # number of ReadExReq accesses(hits+misses)
system.l2.ReadExReq_accesses::total            152318                       # number of ReadExReq accesses(hits+misses)
system.l2.ReadExReq_miss_rate::.cpu.data     0.024167                       # miss rate for ReadExReq accesses
system.l2.ReadExReq_miss_rate::total         0.024167                       # miss rate for ReadExReq accesses
system.l2.ReadExReq_avg_miss_latency::.cpu.data 75612.605270                       # average ReadExReq miss latency
system.l2.ReadExReq_avg_miss_latency::total 75612.605270                       # average ReadExReq miss latency
system.l2.ReadExReq_mshr_misses::.cpu.data         3681                       # number of ReadExReq MSHR misses
system.l2.ReadExReq_mshr_misses::total           3681                       # number of ReadExReq MSHR misses
system.l2.ReadExReq_mshr_miss_latency::.cpu.data    241520000                       # number of ReadExReq MSHR miss cycles
system.l2.ReadExReq_mshr_miss_latency::total    241520000                       # number of ReadExReq MSHR miss cycles
system.l2.ReadExReq_mshr_miss_rate::.cpu.data     0.024167                       # mshr miss rate for ReadExReq accesses
system.l2.ReadExReq_mshr_miss_rate::total     0.024167                       # mshr miss rate for ReadExReq accesses
system.l2.ReadExReq_avg_mshr_miss_latency::.cpu.data 65612.605270                       # average ReadExReq mshr miss latency
system.l2.ReadExReq_avg_mshr_miss_latency::total 65612.605270                       # average ReadExReq mshr miss latency
system.l2.ReadCleanReq_hits::.cpu.inst          13858                       # number of ReadCleanReq hits
system.l2.ReadCleanReq_hits::total              13858                       # number of ReadCleanReq hits
system.l2.ReadCleanReq_misses::.cpu.inst         1178                       # number of ReadCleanReq misses
system.l2.ReadCleanReq_misses::total             1178                       # number of ReadCleanReq misses
system.l2.ReadCleanReq_miss_latency::.cpu.inst     89209500                       # number of ReadCleanReq miss cycles
system.l2.ReadCleanReq_miss_latency::total     89209500                       # number of ReadCleanReq miss cycles
system.l2.ReadCleanReq_accesses::.cpu.inst        15036                       # number of ReadCleanReq accesses(hits+misses)
system.l2.ReadCleanReq_accesses::total          15036                       # number of ReadCleanReq accesses(hits+misses)
system.l2.ReadCleanReq_miss_rate::.cpu.inst     0.078345                       # miss rate for ReadCleanReq accesses
system.l2.ReadCleanReq_miss_rate::total      0.078345                       # miss rate for ReadCleanReq accesses
system.l2.ReadCleanReq_avg_miss_latency::.cpu.inst 75729.626486                       # average ReadCleanReq miss latency
system.l2.ReadCleanReq_avg_miss_latency::total 75729.626486                       # average ReadCleanReq miss latency
system.l2.ReadCleanReq_mshr_hits::.cpu.inst            2                       # number of ReadCleanReq MSHR hits
system.l2.ReadCleanReq_mshr_hits::total             2                       # number of ReadCleanReq MSHR hits
system.l2.ReadCleanReq_mshr_misses::.cpu.inst         1176                       # number of ReadCleanReq MSHR misses
system.l2.ReadCleanReq_mshr_misses::total         1176                       # number of ReadCleanReq MSHR misses
system.l2.ReadCleanReq_mshr_miss_latency::.cpu.inst     77367500                       # number of ReadCleanReq MSHR miss cycles
system.l2.ReadCleanReq_mshr_miss_latency::total     77367500                       # number of ReadCleanReq MSHR miss cycles
system.l2.ReadCleanReq_mshr_miss_rate::.cpu.inst     0.078212                       # mshr miss rate for ReadCleanReq accesses
system.l2.ReadCleanReq_mshr_miss_rate::total     0.078212                       # mshr miss rate for ReadCleanReq accesses
system.l2.ReadCleanReq_avg_mshr_miss_latency::.cpu.inst 65788.690476                       # average ReadCleanReq mshr miss latency
system.l2.ReadCleanReq_avg_mshr_miss_latency::total 65788.690476                       # average ReadCleanReq mshr miss latency
system.l2.ReadSharedReq_hits::.cpu.data        174031                       # number of ReadSharedReq hits
system.l2.ReadSharedReq_hits::total            174031                       # number of ReadSharedReq hits
system.l2.ReadSharedReq_misses::.cpu.data          797                       # number of ReadSharedReq misses
system.l2.ReadSharedReq_misses::total             797                       # number of ReadSharedReq misses
system.l2.ReadSharedReq_miss_latency::.cpu.data     63812000                       # number of ReadSharedReq miss cycles
system.l2.ReadSharedReq_miss_latency::total     63812000                       # number of ReadSharedReq miss cycles
system.l2.ReadSharedReq_accesses::.cpu.data       174828                       # number of ReadSharedReq accesses(hits+misses)
system.l2.ReadSharedReq_accesses::total        174828                       # number of ReadSharedReq accesses(hits+misses)
system.l2.ReadSharedReq_miss_rate::.cpu.data     0.004559                       # miss rate for ReadSharedReq accesses
system.l2.ReadSharedReq_miss_rate::total     0.004559                       # miss rate for ReadSharedReq accesses
system.l2.ReadSharedReq_avg_miss_latency::.cpu.data 80065.244668                       # average ReadSharedReq miss latency
system.l2.ReadSharedReq_avg_miss_latency::total 80065.244668                       # average ReadSharedReq miss latency
system.l2.ReadSharedReq_mshr_hits::.cpu.data            5                       # number of ReadSharedReq MSHR hits
system.l2.ReadSharedReq_mshr_hits::total            5                       # number of ReadSharedReq MSHR hits
system.l2.ReadSharedReq_mshr_misses::.cpu.data          792                       # number of ReadSharedReq MSHR misses
system.l2.ReadSharedReq_mshr_misses::total          792                       # number of ReadSharedReq MSHR misses
system.l2.ReadSharedReq_mshr_miss_latency::.cpu.data     55559500                       # number of ReadSharedReq MSHR miss cycles
system.l2.ReadSharedReq_mshr_miss_latency::total     55559500                       # number of ReadSharedReq MSHR miss cycles
system.l2.ReadSharedReq_mshr_miss_rate::.cpu.data     0.004530                       # mshr miss rate for ReadSharedReq accesses
system.l2.ReadSharedReq_mshr_miss_rate::total     0.004530                       # mshr miss rate for ReadSharedReq accesses
system.l2.ReadSharedReq_avg_mshr_miss_latency::.cpu.data 70150.883838                       # average ReadSharedReq mshr miss latency
system.l2.ReadSharedReq_avg_mshr_miss_latency::total 70150.883838                       # average ReadSharedReq mshr miss latency
system.l2.power_state.pwrStateResidencyTicks::UNDEFINED  72412467500                       # Cumulative time (in ticks) in various power states
system.l2.tags.tagsinuse                  5544.944410                       # Cycle average of tags in use
system.l2.tags.total_refs                      680043                       # Total number of references to valid blocks.
system.l2.tags.sampled_refs                      5649                       # Sample count of references to valid blocks.
system.l2.tags.avg_refs                    120.382900                       # Average number of references to valid blocks.
system.l2.tags.warmup_cycle                     77000                       # Cycle when the warmup percentage was hit.
system.l2.tags.occ_blocks::.cpu.inst      1172.418002                       # Average occupied blocks per requestor
system.l2.tags.occ_blocks::.cpu.data      4372.526408                       # Average occupied blocks per requestor
system.l2.tags.occ_percent::.cpu.inst        0.035779                       # Average percentage of cache occupancy
system.l2.tags.occ_percent::.cpu.data        0.133439                       # Average percentage of cache occupancy
system.l2.tags.occ_percent::total            0.169218                       # Average percentage of cache occupancy
system.l2.tags.occ_task_id_blocks::1024          5649                       # Occupied blocks per task id
system.l2.tags.age_task_id_blocks_1024::4         5649                       # Occupied blocks per task id
system.l2.tags.occ_task_id_percent::1024     0.172394                       # Percentage of cache occupancy per task id
system.l2.tags.tag_accesses                   5446049                       # Number of tag accesses
system.l2.tags.data_accesses                  5446049                       # Number of data accesses
system.l2.tags.power_state.pwrStateResidencyTicks::UNDEFINED  72412467500                       # Cumulative time (in ticks) in various power states
system.mem_ctrls.avgPriority_.cpu.inst::samples      1176.00                       # Average QoS priority value for accepted requests
system.mem_ctrls.avgPriority_.cpu.data::samples      4473.00                       # Average QoS priority value for accepted requests
system.mem_ctrls.priorityMinLatency      0.000000018750                       # per QoS priority minimum request to response latency (s)
system.mem_ctrls.priorityMaxLatency      0.000000578000                       # per QoS priority maximum request to response latency (s)
system.mem_ctrls.numReadWriteTurnArounds            0                       # Number of turnarounds from READ to WRITE
system.mem_ctrls.numWriteReadTurnArounds            0                       # Number of turnarounds from WRITE to READ
system.mem_ctrls.numStayReadState               29878                       # Number of times bus staying in READ state
system.mem_ctrls.numStayWriteState                  0                       # Number of times bus staying in WRITE state
system.mem_ctrls.readReqs                        5649                       # Number of read requests accepted
system.mem_ctrls.writeReqs                          0                       # Number of write requests accepted
system.mem_ctrls.readBursts                      5649                       # Number of controller read bursts, including those serviced by the write queue
system.mem_ctrls.writeBursts                        0                       # Number of controller write bursts, including those merged in the write queue
system.mem_ctrls.servicedByWrQ                      0                       # Number of controller read bursts serviced by the write queue
system.mem_ctrls.mergedWrBursts                     0                       # Number of controller write bursts merged with an existing one
system.mem_ctrls.neitherReadNorWriteReqs            0                       # Number of requests that are neither read nor write
system.mem_ctrls.avgRdQLen                       1.00                       # Average read queue length when enqueuing
system.mem_ctrls.avgWrQLen                       0.00                       # Average write queue length when enqueuing
system.mem_ctrls.numRdRetry                         0                       # Number of times read queue was full causing retry
system.mem_ctrls.numWrRetry                         0                       # Number of times write queue was full causing retry
system.mem_ctrls.readPktSize::0                     0                       # Read request sizes (log2)
system.mem_ctrls.readPktSize::1                     0                       # Read request sizes (log2)
system.mem_ctrls.readPktSize::2                     0                       # Read request sizes (log2)
system.mem_ctrls.readPktSize::3                     0                       # Read request sizes (log2)
system.mem_ctrls.readPktSize::4                     0                       # Read request sizes (log2)
system.mem_ctrls.readPktSize::5                     0                       # Read request sizes (log2)
system.mem_ctrls.readPktSize::6                  5649                       # Read request sizes (log2)
system.mem_ctrls.writePktSize::0                    0                       # Write request sizes (log2)
system.mem_ctrls.writePktSize::1                    0                       # Write request sizes (log2)
system.mem_ctrls.writePktSize::2                    0                       # Write request sizes (log2)
system.mem_ctrls.writePktSize::3                    0                       # Write request sizes (log2)
system.mem_ctrls.writePktSize::4                    0                       # Write request sizes (log2)
system.mem_ctrls.writePktSize::5                    0                       # Write request sizes (log2)
system.mem_ctrls.writePktSize::6                    0                       # Write request sizes (log2)
system.mem_ctrls.rdQLenPdf::0                    5207                       # What read queue length does an incoming req see
system.mem_ctrls.rdQLenPdf::1                     414                       # What read queue length does an incoming req see
system.mem_ctrls.rdQLenPdf::2                      26                       # What read queue length does an incoming req see
system.mem_ctrls.rdQLenPdf::3                       2                       # What read queue length does an incoming req see
system.mem_ctrls.rdQLenPdf::4                       0                       # What read queue length does an incoming req see
system.mem_ctrls.rdQLenPdf::5                       0                       # What read queue length does an incoming req see
system.mem_ctrls.rdQLenPdf::6                       0                       # What read queue length does an incoming req see
system.mem_ctrls.rdQLenPdf::7                       0                       # What read queue length does an incoming req see
system.mem_ctrls.rdQLenPdf::8                       0                       # What read queue length does an incoming req see
system.mem_ctrls.rdQLenPdf::9                       0                       # What read queue length does an incoming req see
system.mem_ctrls.rdQLenPdf::10                      0                       # What read queue length does an incoming req see
system.mem_ctrls.rdQLenPdf::11                      0                       # What read queue length does an incoming req see
system.mem_ctrls.rdQLenPdf::12                      0                       # What read queue length does an incoming req see
system.mem_ctrls.rdQLenPdf::13                      0                       # What read queue length does an incoming req see
[...]
system.mem_ctrls.dram.bw_read::.cpu.data      3953352                       # Total read bandwidth from this memory (bytes/s)
system.mem_ctrls.dram.bw_read::total          4992731                       # Total read bandwidth from this memory (bytes/s)
system.mem_ctrls.dram.bw_inst_read::.cpu.inst      1039379                       # Instruction read bandwidth from this memory (bytes/s)
system.mem_ctrls.dram.bw_inst_read::total      1039379                       # Instruction read bandwidth from this memory (bytes/s)
system.mem_ctrls.dram.bw_total::.cpu.inst      1039379                       # Total bandwidth to/from this memory (bytes/s)
system.mem_ctrls.dram.bw_total::.cpu.data      3953352                       # Total bandwidth to/from this memory (bytes/s)
system.mem_ctrls.dram.bw_total::total         4992731                       # Total bandwidth to/from this memory (bytes/s)
system.mem_ctrls.dram.readBursts                 5649                       # Number of DRAM read bursts
system.mem_ctrls.dram.writeBursts                   0                       # Number of DRAM write bursts
system.mem_ctrls.dram.perBankRdBursts::0          420                       # Per bank write bursts
system.mem_ctrls.dram.perBankRdBursts::1          398                       # Per bank write bursts
system.mem_ctrls.dram.perBankRdBursts::2          364                       # Per bank write bursts
system.mem_ctrls.dram.perBankRdBursts::3          335                       # Per bank write bursts
system.mem_ctrls.dram.perBankRdBursts::4          353                       # Per bank write bursts
system.mem_ctrls.dram.perBankRdBursts::5          301                       # Per bank write bursts
system.mem_ctrls.dram.perBankRdBursts::6          376                       # Per bank write bursts
system.mem_ctrls.dram.perBankRdBursts::7          370                       # Per bank write bursts
system.mem_ctrls.dram.perBankRdBursts::8          224                       # Per bank write bursts
system.mem_ctrls.dram.perBankRdBursts::9          330                       # Per bank write bursts
system.mem_ctrls.dram.perBankRdBursts::10          294                       # Per bank write bursts
system.mem_ctrls.dram.perBankRdBursts::11          347                       # Per bank write bursts
system.mem_ctrls.dram.perBankRdBursts::12          372                       # Per bank write bursts
system.mem_ctrls.dram.perBankRdBursts::13          409                       # Per bank write bursts
system.mem_ctrls.dram.perBankRdBursts::14          422                       # Per bank write bursts
system.mem_ctrls.dram.perBankRdBursts::15          334                       # Per bank write bursts
system.mem_ctrls.dram.perBankWrBursts::0            0                       # Per bank write bursts
system.mem_ctrls.dram.perBankWrBursts::1            0                       # Per bank write bursts
system.mem_ctrls.dram.perBankWrBursts::2            0                       # Per bank write bursts
system.mem_ctrls.dram.perBankWrBursts::3            0                       # Per bank write bursts
system.mem_ctrls.dram.perBankWrBursts::4            0                       # Per bank write bursts
system.mem_ctrls.dram.perBankWrBursts::5            0                       # Per bank write bursts
system.mem_ctrls.dram.perBankWrBursts::6            0                       # Per bank write bursts
system.mem_ctrls.dram.perBankWrBursts::7            0                       # Per bank write bursts
system.mem_ctrls.dram.perBankWrBursts::8            0                       # Per bank write bursts
system.mem_ctrls.dram.perBankWrBursts::9            0                       # Per bank write bursts
system.mem_ctrls.dram.perBankWrBursts::10            0                       # Per bank write bursts
system.mem_ctrls.dram.perBankWrBursts::11            0                       # Per bank write bursts
system.mem_ctrls.dram.perBankWrBursts::12            0                       # Per bank write bursts
system.mem_ctrls.dram.perBankWrBursts::13            0                       # Per bank write bursts
system.mem_ctrls.dram.perBankWrBursts::14            0                       # Per bank write bursts
system.mem_ctrls.dram.perBankWrBursts::15            0                       # Per bank write bursts
system.mem_ctrls.dram.totQLat                36590500                       # Total ticks spent queuing
system.mem_ctrls.dram.totBusLat              28245000                       # Total ticks spent in databus transfers
system.mem_ctrls.dram.totMemAccLat          142509250                       # Total ticks spent from burst creation until serviced by the DRAM
system.mem_ctrls.dram.avgQLat                 6477.34                       # Average queueing delay per DRAM burst
system.mem_ctrls.dram.avgBusLat               5000.00                       # Average bus latency per DRAM burst
system.mem_ctrls.dram.avgMemAccLat           25227.34                       # Average memory access latency per DRAM burst
system.mem_ctrls.dram.readRowHits                4743                       # Number of row buffer hits during reads
system.mem_ctrls.dram.writeRowHits                  0                       # Number of row buffer hits during writes
system.mem_ctrls.dram.readRowHitRate            83.96                       # Row buffer hit rate for reads
system.mem_ctrls.dram.writeRowHitRate             nan                       # Row buffer hit rate for writes
system.mem_ctrls.dram.bytesPerActivate::samples          906                       # Bytes accessed per row activation
system.mem_ctrls.dram.bytesPerActivate::mean   399.046358                       # Bytes accessed per row activation
system.mem_ctrls.dram.bytesPerActivate::gmean   256.415772                       # Bytes accessed per row activation
system.mem_ctrls.dram.bytesPerActivate::stdev   344.531839                       # Bytes accessed per row activation
system.mem_ctrls.dram.bytesPerActivate::0-127          210     23.18%     23.18% # Bytes accessed per row activation
system.mem_ctrls.dram.bytesPerActivate::128-255          207     22.85%     46.03% # Bytes accessed per row activation
system.mem_ctrls.dram.bytesPerActivate::256-383          103     11.37%     57.40% # Bytes accessed per row activation
system.mem_ctrls.dram.bytesPerActivate::384-511          114     12.58%     69.98% # Bytes accessed per row activation
system.mem_ctrls.dram.bytesPerActivate::512-639           33      3.64%     73.62% # Bytes accessed per row activation
system.mem_ctrls.dram.bytesPerActivate::640-767           31      3.42%     77.04% # Bytes accessed per row activation
system.mem_ctrls.dram.bytesPerActivate::768-895           31      3.42%     80.46% # Bytes accessed per row activation
system.mem_ctrls.dram.bytesPerActivate::896-1023           50      5.52%     85.98% # Bytes accessed per row activation
system.mem_ctrls.dram.bytesPerActivate::1024-1151          127     14.02%    100.00% # Bytes accessed per row activation
system.mem_ctrls.dram.bytesPerActivate::total          906                       # Bytes accessed per row activation
system.mem_ctrls.dram.bytesRead                361536                       # Total number of bytes read from DRAM
system.mem_ctrls.dram.bytesWritten                  0                       # Total number of bytes written to DRAM
system.mem_ctrls.dram.avgRdBW                4.992731                       # Average DRAM read bandwidth in MiBytes/s
system.mem_ctrls.dram.avgWrBW                       0                       # Average DRAM write bandwidth in MiBytes/s
system.mem_ctrls.dram.peakBW                 12800.00                       # Theoretical peak bandwidth in MiByte/s
system.mem_ctrls.dram.busUtil                    0.04                       # Data bus utilization in percentage
system.mem_ctrls.dram.busUtilRead                0.04                       # Data bus utilization in percentage for reads
system.mem_ctrls.dram.busUtilWrite               0.00                       # Data bus utilization in percentage for writes
system.mem_ctrls.dram.pageHitRate               83.96                       # Row buffer hit rate, read and write combined
system.mem_ctrls.dram.power_state.pwrStateResidencyTicks::UNDEFINED  72412467500                       # Cumulative time (in ticks) in various power states
system.mem_ctrls.dram.rank0.actEnergy         3627120                       # Energy for activate commands per rank (pJ)
system.mem_ctrls.dram.rank0.preEnergy         1927860                       # Energy for precharge commands per rank (pJ)
system.mem_ctrls.dram.rank0.readEnergy       20827380                       # Energy for read commands per rank (pJ)
system.mem_ctrls.dram.rank0.writeEnergy             0                       # Energy for write commands per rank (pJ)
system.mem_ctrls.dram.rank0.refreshEnergy 5716152000.000001                       # Energy for refresh commands per rank (pJ)
system.mem_ctrls.dram.rank0.actBackEnergy   1588494240                       # Energy for active background per rank (pJ)
system.mem_ctrls.dram.rank0.preBackEnergy  26468708160                       # Energy for precharge background per rank (pJ)
system.mem_ctrls.dram.rank0.actPowerDownEnergy            0                       # Energy for active power-down per rank (pJ)
system.mem_ctrls.dram.rank0.prePowerDownEnergy            0                       # Energy for precharge power-down per rank (pJ)
system.mem_ctrls.dram.rank0.selfRefreshEnergy            0                       # Energy for self refresh per rank (pJ)
system.mem_ctrls.dram.rank0.totalEnergy   33799736760                       # Total energy per rank (pJ)
system.mem_ctrls.dram.rank0.averagePower   466.766814                       # Core power per rank (mW)
system.mem_ctrls.dram.rank0.totalIdleTime            0                       # Total Idle time Per DRAM Rank
system.mem_ctrls.dram.rank0.pwrStateTime::IDLE  68797683250                       # Time in different power states
system.mem_ctrls.dram.rank0.pwrStateTime::REF   2418000000                       # Time in different power states
system.mem_ctrls.dram.rank0.pwrStateTime::SREF            0                       # Time in different power states
system.mem_ctrls.dram.rank0.pwrStateTime::PRE_PDN            0                       # Time in different power states
system.mem_ctrls.dram.rank0.pwrStateTime::ACT   1196784250                       # Time in different power states
system.mem_ctrls.dram.rank0.pwrStateTime::ACT_PDN            0                       # Time in different power states
system.mem_ctrls.dram.rank1.actEnergy         2841720                       # Energy for activate commands per rank (pJ)
system.mem_ctrls.dram.rank1.preEnergy         1510410                       # Energy for precharge commands per rank (pJ)
system.mem_ctrls.dram.rank1.readEnergy       19506480                       # Energy for read commands per rank (pJ)
system.mem_ctrls.dram.rank1.writeEnergy             0                       # Energy for write commands per rank (pJ)
system.mem_ctrls.dram.rank1.refreshEnergy 5716152000.000001                       # Energy for refresh commands per rank (pJ)
system.mem_ctrls.dram.rank1.actBackEnergy   1498696440                       # Energy for active background per rank (pJ)
system.mem_ctrls.dram.rank1.preBackEnergy  26544327360                       # Energy for precharge background per rank (pJ)
system.mem_ctrls.dram.rank1.actPowerDownEnergy            0                       # Energy for active power-down per rank (pJ)
system.mem_ctrls.dram.rank1.prePowerDownEnergy            0                       # Energy for precharge power-down per rank (pJ)
system.mem_ctrls.dram.rank1.selfRefreshEnergy            0                       # Energy for self refresh per rank (pJ)
system.mem_ctrls.dram.rank1.totalEnergy   33783034410                       # Total energy per rank (pJ)
system.mem_ctrls.dram.rank1.averagePower   466.536158                       # Core power per rank (mW)
system.mem_ctrls.dram.rank1.totalIdleTime            0                       # Total Idle time Per DRAM Rank
system.mem_ctrls.dram.rank1.pwrStateTime::IDLE  68995446750                       # Time in different power states
system.mem_ctrls.dram.rank1.pwrStateTime::REF   2418000000                       # Time in different power states
system.mem_ctrls.dram.rank1.pwrStateTime::SREF            0                       # Time in different power states
system.mem_ctrls.dram.rank1.pwrStateTime::PRE_PDN            0                       # Time in different power states
system.mem_ctrls.dram.rank1.pwrStateTime::ACT    999020750                       # Time in different power states
system.mem_ctrls.dram.rank1.pwrStateTime::ACT_PDN            0                       # Time in different power states
system.mem_ctrls.power_state.pwrStateResidencyTicks::UNDEFINED  72412467500                       # Cumulative time (in ticks) in various power states
system.membus.trans_dist::ReadResp               1968                       # Transaction distribution
system.membus.trans_dist::ReadExReq              3681                       # Transaction distribution
system.membus.trans_dist::ReadExResp             3681                       # Transaction distribution
system.membus.trans_dist::ReadSharedReq          1968                       # Transaction distribution
system.membus.pkt_count_system.l2.mem_side_port::system.mem_ctrls.port        11298                       # Packet count per connected requestor and responder (bytes)
system.membus.pkt_count::total                  11298                       # Packet count per connected requestor and responder (bytes)
system.membus.pkt_size_system.l2.mem_side_port::system.mem_ctrls.port       361536                       # Cumulative packet size per connected requestor and responder (bytes)
system.membus.pkt_size::total                  361536                       # Cumulative packet size per connected requestor and responder (bytes)
system.membus.snoops                                0                       # Total snoops (count)
system.membus.snoopTraffic                          0                       # Total snoop traffic (bytes)
system.membus.snoop_fanout::samples              5649                       # Request fanout histogram
system.membus.snoop_fanout::mean                    0                       # Request fanout histogram
system.membus.snoop_fanout::stdev                   0                       # Request fanout histogram
system.membus.snoop_fanout::underflows              0      0.00%      0.00% # Request fanout histogram
system.membus.snoop_fanout::0                    5649    100.00%    100.00% # Request fanout histogram
system.membus.snoop_fanout::1                       0      0.00%    100.00% # Request fanout histogram
system.membus.snoop_fanout::overflows               0      0.00%    100.00% # Request fanout histogram
system.membus.snoop_fanout::min_value               0                       # Request fanout histogram
system.membus.snoop_fanout::max_value               0                       # Request fanout histogram
system.membus.snoop_fanout::total                5649                       # Request fanout histogram
system.membus.power_state.pwrStateResidencyTicks::UNDEFINED  72412467500                       # Cumulative time (in ticks) in various power states
system.membus.reqLayer0.occupancy             6970000                       # Layer occupancy (ticks)
system.membus.reqLayer0.utilization               0.0                       # Layer utilization (%)
system.membus.respLayer1.occupancy           29910500                       # Layer occupancy (ticks)
system.membus.respLayer1.utilization              0.0                       # Layer utilization (%)
system.tol2bus.trans_dist::ReadResp            189864                       # Transaction distribution
system.tol2bus.trans_dist::WritebackDirty       321573                       # Transaction distribution
system.tol2bus.trans_dist::WritebackClean        14581                       # Transaction distribution
system.tol2bus.trans_dist::CleanEvict            4549                       # Transaction distribution
system.tol2bus.trans_dist::ReadExReq           152318                       # Transaction distribution
system.tol2bus.trans_dist::ReadExResp          152318                       # Transaction distribution
system.tol2bus.trans_dist::ReadCleanReq         15036                       # Transaction distribution
system.tol2bus.trans_dist::ReadSharedReq       174828                       # Transaction distribution
system.tol2bus.pkt_count_system.cpu.icache.mem_side_port::system.l2.cpu_side_port        44653                       # Packet count per connected requestor and responder (bytes)
system.tol2bus.pkt_count_system.cpu.dcache.mem_side_port::system.l2.cpu_side_port       980414                       # Packet count per connected requestor and responder (bytes)
system.tol2bus.pkt_count::total               1025067                       # Packet count per connected requestor and responder (bytes)
system.tol2bus.pkt_size_system.cpu.icache.mem_side_port::system.l2.cpu_side_port      1895488                       # Cumulative packet size per connected requestor and responder (bytes)
system.tol2bus.pkt_size_system.cpu.dcache.mem_side_port::system.l2.cpu_side_port     41518016                       # Cumulative packet size per connected requestor and responder (bytes)
system.tol2bus.pkt_size::total               43413504                       # Cumulative packet size per connected requestor and responder (bytes)
system.tol2bus.snoops                               0                       # Total snoops (count)
system.tol2bus.snoopTraffic                         0                       # Total snoop traffic (bytes)
system.tol2bus.snoop_fanout::samples           342182                       # Request fanout histogram
system.tol2bus.snoop_fanout::mean            0.008297                       # Request fanout histogram
system.tol2bus.snoop_fanout::stdev           0.090708                       # Request fanout histogram
system.tol2bus.snoop_fanout::underflows             0      0.00%      0.00% # Request fanout histogram
system.tol2bus.snoop_fanout::0                 339343     99.17%     99.17% # Request fanout histogram
system.tol2bus.snoop_fanout::1                   2839      0.83%    100.00% # Request fanout histogram
system.tol2bus.snoop_fanout::2                      0      0.00%    100.00% # Request fanout histogram
system.tol2bus.snoop_fanout::overflows              0      0.00%    100.00% # Request fanout histogram
system.tol2bus.snoop_fanout::min_value              0                       # Request fanout histogram
system.tol2bus.snoop_fanout::max_value              1                       # Request fanout histogram
system.tol2bus.snoop_fanout::total             342182                       # Request fanout histogram
system.tol2bus.power_state.pwrStateResidencyTicks::UNDEFINED  72412467500                       # Cumulative time (in ticks) in various power states
system.tol2bus.reqLayer0.occupancy          677596500                       # Layer occupancy (ticks)
system.tol2bus.reqLayer0.utilization              0.9                       # Layer utilization (%)
system.tol2bus.respLayer0.occupancy          22565976                       # Layer occupancy (ticks)
system.tol2bus.respLayer0.utilization             0.0                       # Layer utilization (%)
system.tol2bus.respLayer1.occupancy         490723491                       # Layer occupancy (ticks)
system.tol2bus.respLayer1.utilization             0.7                       # Layer utilization (%)
system.voltage_domain.voltage                       1                       # Voltage in Volts

---------- End Simulation Statistics   ----------
