
---------- Begin Simulation Statistics ----------
final_tick                               175150617000                       # Number of ticks from beginning of simulation (restored from checkpoints and never reset)
host_inst_rate                                 399413                       # Simulator instruction rate (inst/s)
host_mem_usage                                 669548                       # Number of bytes of host memory used
host_op_rate                                   399428                       # Simulator op (including micro ops) rate (op/s)
host_seconds                                   250.37                       # Real time elapsed on the host
host_tick_rate                              699574944                       # Simulator tick rate (ticks/s)
sim_freq                                 1000000000000                       # Frequency of simulated ticks
sim_insts                                   100000000                       # Number of instructions simulated
sim_ops                                     100003630                       # Number of ops (including micro ops) simulated
sim_seconds                                  0.175151                       # Number of seconds simulated
sim_ticks                                175150617000                       # Number of ticks simulated
system.cpu.committedInsts                   100000000                       # Number of instructions committed
system.cpu.committedOps                     100003630                       # Number of ops (including micro ops) committed
system.cpu.cpi                               3.503012                       # CPI: cycles per instruction
system.cpu.discardedOps                         21188                       # Number of ops (including micro ops) which were discarded before commit
system.cpu.idleCycles                       232949300                       # Total number of cycles that the object has spent stopped
system.cpu.ipc                               0.285469                       # IPC: instructions per cycle
system.cpu.numCycles                        350301234                       # number of cpu cycles simulated
system.cpu.numFetchSuspends                         0                       # Number of times Execute suspended instruction fetching
system.cpu.numWorkItemsCompleted                    0                       # number of work items this cpu completed
system.cpu.numWorkItemsStarted                      0                       # number of work items this cpu started
system.cpu.op_class_0::No_OpClass                   0      0.00%      0.00% # Class of committed instruction
system.cpu.op_class_0::IntAlu                49995350     49.99%     49.99% # Class of committed instruction
system.cpu.op_class_0::IntMult                     88      0.00%     49.99% # Class of committed instruction
system.cpu.op_class_0::IntDiv                       0      0.00%     49.99% # Class of committed instruction
system.cpu.op_class_0::FloatAdd                     0      0.00%     49.99% # Class of committed instruction
system.cpu.op_class_0::FloatCmp                     0      0.00%     49.99% # Class of committed instruction
system.cpu.op_class_0::FloatCvt                     0      0.00%     49.99% # Class of committed instruction
system.cpu.op_class_0::FloatMult                    0      0.00%     49.99% # Class of committed instruction
system.cpu.op_class_0::FloatMultAcc                 0      0.00%     49.99% # Class of committed instruction
system.cpu.op_class_0::FloatDiv                     0      0.00%     49.99% # Class of committed instruction
system.cpu.op_class_0::FloatMisc                    0      0.00%     49.99% # Class of committed instruction
system.cpu.op_class_0::FloatSqrt                    0      0.00%     49.99% # Class of committed instruction
system.cpu.op_class_0::SimdAdd                      0      0.00%     49.99% # Class of committed instruction
system.cpu.op_class_0::SimdAddAcc                   0      0.00%     49.99% # Class of committed instruction
system.cpu.op_class_0::SimdAlu                      0      0.00%     49.99% # Class of committed instruction
system.cpu.op_class_0::SimdCmp                      0      0.00%     49.99% # Class of committed instruction
system.cpu.op_class_0::SimdCvt                      0      0.00%     49.99% # Class of committed instruction
system.cpu.op_class_0::SimdMisc                     0      0.00%     49.99% # Class of committed instruction
system.cpu.op_class_0::SimdMult                     0      0.00%     49.99% # Class of committed instruction
system.cpu.op_class_0::SimdMultAcc                  0      0.00%     49.99% # Class of committed instruction
system.cpu.op_class_0::SimdShift                    0      0.00%     49.99% # Class of committed instruction
system.cpu.op_class_0::SimdShiftAcc                 0      0.00%     49.99% # Class of committed instruction
system.cpu.op_class_0::SimdDiv                      0      0.00%     49.99% # Class of committed instruction
system.cpu.op_class_0::SimdSqrt                     0      0.00%     49.99% # Class of committed instruction
system.cpu.op_class_0::SimdFloatAdd                 0      0.00%     49.99% # Class of committed instruction
system.cpu.op_class_0::SimdFloatAlu                 0      0.00%     49.99% # Class of committed instruction
system.cpu.op_class_0::SimdFloatCmp                 2      0.00%     49.99% # Class of committed instruction
system.cpu.op_class_0::SimdFloatCvt                 0      0.00%     49.99% # Class of committed instruction
system.cpu.op_class_0::SimdFloatDiv                 0      0.00%     49.99% # Class of committed instruction
system.cpu.op_class_0::SimdFloatMisc               22      0.00%     49.99% # Class of committed instruction
system.cpu.op_class_0::SimdFloatMult                0      0.00%     49.99% # Class of committed instruction
system.cpu.op_class_0::SimdFloatMultAcc             0      0.00%     49.99% # Class of committed instruction
system.cpu.op_class_0::SimdFloatSqrt                0      0.00%     49.99% # Class of committed instruction
system.cpu.op_class_0::SimdReduceAdd                0      0.00%     49.99% # Class of committed instruction
system.cpu.op_class_0::SimdReduceAlu                0      0.00%     49.99% # Class of committed instruction
system.cpu.op_class_0::SimdReduceCmp                0      0.00%     49.99% # Class of committed instruction
system.cpu.op_class_0::SimdFloatReduceAdd            0      0.00%     49.99% # Class of committed instruction
system.cpu.op_class_0::SimdFloatReduceCmp            0      0.00%     49.99% # Class of committed instruction
system.cpu.op_class_0::SimdAes                      0      0.00%     49.99% # Class of committed instruction
system.cpu.op_class_0::SimdAesMix                   0      0.00%     49.99% # Class of committed instruction
system.cpu.op_class_0::SimdSha1Hash                 0      0.00%     49.99% # Class of committed instruction
system.cpu.op_class_0::SimdSha1Hash2                0      0.00%     49.99% # Class of committed instruction
system.cpu.op_class_0::SimdSha256Hash               0      0.00%     49.99% # Class of committed instruction
system.cpu.op_class_0::SimdSha256Hash2              0      0.00%     49.99% # Class of committed instruction
system.cpu.op_class_0::SimdShaSigma2                0      0.00%     49.99% # Class of committed instruction
system.cpu.op_class_0::SimdShaSigma3                0      0.00%     49.99% # Class of committed instruction
system.cpu.op_class_0::SimdPredAlu                  0      0.00%     49.99% # Class of committed instruction
system.cpu.op_class_0::MemRead               36892285     36.89%     86.88% # Class of committed instruction
system.cpu.op_class_0::MemWrite              13115883     13.12%    100.00% # Class of committed instruction
system.cpu.op_class_0::FloatMemRead                 0      0.00%    100.00% # Class of committed instruction
system.cpu.op_class_0::FloatMemWrite                0      0.00%    100.00% # Class of committed instruction
system.cpu.op_class_0::IprAccess                    0      0.00%    100.00% # Class of committed instruction
system.cpu.op_class_0::InstPrefetch                 0      0.00%    100.00% # Class of committed instruction
system.cpu.op_class_0::total                100003630                       # Class of committed instruction
system.cpu.tickCycles                       117351934                       # Number of cycles that the object actually ticked
system.cpu.workload.numSyscalls                    19                       # Number of system calls
system.membus.snoop_filter.hit_multi_requests            0                       # Number of requests hitting in the snoop filter with multiple (>1) holders of the requested data.
system.membus.snoop_filter.hit_multi_snoops            0                       # Number of snoops hitting in the snoop filter with multiple (>1) holders of the requested data.
system.membus.snoop_filter.hit_single_requests      1455098                       # Number of requests hitting in the snoop filter with a single holder of the requested data.
system.membus.snoop_filter.hit_single_snoops            0                       # Number of snoops hitting in the snoop filter with a single holder of the requested data.
system.membus.snoop_filter.tot_requests       2943209                       # Total number of requests made to the snoop filter.
system.membus.snoop_filter.tot_snoops               0                       # Total number of snoops made to the snoop filter.
system.tol2bus.snoop_filter.hit_multi_requests           38                       # Number of requests hitting in the snoop filter with multiple (>1) holders of the requested data.
system.tol2bus.snoop_filter.hit_multi_snoops            1                       # Number of snoops hitting in the snoop filter with multiple (>1) holders of the requested data.
system.tol2bus.snoop_filter.hit_single_requests      1487559                       # Number of requests hitting in the snoop filter with a single holder of the requested data.
system.tol2bus.snoop_filter.hit_single_snoops          244                       # Number of snoops hitting in the snoop filter with a single holder of the requested data.
system.tol2bus.snoop_filter.tot_requests      2975872                       # Total number of requests made to the snoop filter.
system.tol2bus.snoop_filter.tot_snoops            245                       # Total number of snoops made to the snoop filter.
system.clk_domain.clock                          1000                       # Clock period in ticks
system.cpu.branchPred.lookups                  606488                       # Number of BP lookups
system.cpu.branchPred.condPredicted            604431                       # Number of conditional branches predicted
system.cpu.branchPred.condIncorrect               824                       # Number of conditional branches incorrect
system.cpu.branchPred.BTBLookups               602500                       # Number of BTB lookups
system.cpu.branchPred.BTBHits                  601423                       # Number of BTB hits
system.cpu.branchPred.BTBHitPct             99.821245                       # BTB Hit Percentage
system.cpu.branchPred.RASUsed                     558                       # Number of times the RAS was used to get a target.
system.cpu.branchPred.RASIncorrect                  2                       # Number of incorrect RAS predictions.
system.cpu.branchPred.indirectLookups             366                       # Number of indirect predictor lookups.
system.cpu.branchPred.indirectHits                174                       # Number of indirect target hits.
system.cpu.branchPred.indirectMisses              192                       # Number of indirect misses.
system.cpu.branchPred.indirectMispredicted          102                       # Number of mispredicted indirect branches.
system.cpu.dcache.demand_hits::.cpu.data     45820107                       # number of demand (read+write) hits
system.cpu.dcache.demand_hits::total         45820107                       # number of demand (read+write) hits
system.cpu.dcache.overall_hits::.cpu.data     45820142                       # number of overall hits
system.cpu.dcache.overall_hits::total        45820142                       # number of overall hits
system.cpu.dcache.demand_misses::.cpu.data      2975105                       # number of demand (read+write) misses
system.cpu.dcache.demand_misses::total        2975105                       # number of demand (read+write) misses
system.cpu.dcache.overall_misses::.cpu.data      2975122                       # number of overall misses
system.cpu.dcache.overall_misses::total       2975122                       # number of overall misses
system.cpu.dcache.demand_miss_latency::.cpu.data 238016985500                       # number of demand (read+write) miss cycles
system.cpu.dcache.demand_miss_latency::total 238016985500                       # number of demand (read+write) miss cycles
system.cpu.dcache.overall_miss_latency::.cpu.data 238016985500                       # number of overall miss cycles
system.cpu.dcache.overall_miss_latency::total 238016985500                       # number of overall miss cycles
system.cpu.dcache.demand_accesses::.cpu.data     48795212                       # number of demand (read+write) accesses
system.cpu.dcache.demand_accesses::total     48795212                       # number of demand (read+write) accesses
system.cpu.dcache.overall_accesses::.cpu.data     48795264                       # number of overall (read+write) accesses
system.cpu.dcache.overall_accesses::total     48795264                       # number of overall (read+write) accesses
system.cpu.dcache.demand_miss_rate::.cpu.data     0.060971                       # miss rate for demand accesses
system.cpu.dcache.demand_miss_rate::total     0.060971                       # miss rate for demand accesses
system.cpu.dcache.overall_miss_rate::.cpu.data     0.060972                       # miss rate for overall accesses
system.cpu.dcache.overall_miss_rate::total     0.060972                       # miss rate for overall accesses
system.cpu.dcache.demand_avg_miss_latency::.cpu.data 80002.885781                       # average overall miss latency
system.cpu.dcache.demand_avg_miss_latency::total 80002.885781                       # average overall miss latency
system.cpu.dcache.overall_avg_miss_latency::.cpu.data 80002.428640                       # average overall miss latency
system.cpu.dcache.overall_avg_miss_latency::total 80002.428640                       # average overall miss latency
system.cpu.dcache.blocked_cycles::no_mshrs            0                       # number of cycles access was blocked
system.cpu.dcache.blocked_cycles::no_targets            0                       # number of cycles access was blocked
system.cpu.dcache.blocked::no_mshrs                 0                       # number of cycles access was blocked
system.cpu.dcache.blocked::no_targets               0                       # number of cycles access was blocked
system.cpu.dcache.avg_blocked_cycles::no_mshrs          nan                       # average number of cycles each access was blocked
system.cpu.dcache.avg_blocked_cycles::no_targets          nan                       # average number of cycles each access was blocked
system.cpu.dcache.writebacks::.writebacks      1487009                       # number of writebacks
system.cpu.dcache.writebacks::total           1487009                       # number of writebacks
system.cpu.dcache.demand_mshr_hits::.cpu.data      1487488                       # number of demand (read+write) MSHR hits
system.cpu.dcache.demand_mshr_hits::total      1487488                       # number of demand (read+write) MSHR hits
system.cpu.dcache.overall_mshr_hits::.cpu.data      1487488                       # number of overall MSHR hits
system.cpu.dcache.overall_mshr_hits::total      1487488                       # number of overall MSHR hits
system.cpu.dcache.demand_mshr_misses::.cpu.data      1487617                       # number of demand (read+write) MSHR misses
system.cpu.dcache.demand_mshr_misses::total      1487617                       # number of demand (read+write) MSHR misses
system.cpu.dcache.overall_mshr_misses::.cpu.data      1487631                       # number of overall MSHR misses
system.cpu.dcache.overall_mshr_misses::total      1487631                       # number of overall MSHR misses
system.cpu.dcache.demand_mshr_miss_latency::.cpu.data 121472243000                       # number of demand (read+write) MSHR miss cycles
system.cpu.dcache.demand_mshr_miss_latency::total 121472243000                       # number of demand (read+write) MSHR miss cycles
system.cpu.dcache.overall_mshr_miss_latency::.cpu.data 121473335500                       # number of overall MSHR miss cycles
system.cpu.dcache.overall_mshr_miss_latency::total 121473335500                       # number of overall MSHR miss cycles
system.cpu.dcache.demand_mshr_miss_rate::.cpu.data     0.030487                       # mshr miss rate for demand accesses
system.cpu.dcache.demand_mshr_miss_rate::total     0.030487                       # mshr miss rate for demand accesses
system.cpu.dcache.overall_mshr_miss_rate::.cpu.data     0.030487                       # mshr miss rate for overall accesses
system.cpu.dcache.overall_mshr_miss_rate::total     0.030487                       # mshr miss rate for overall accesses
system.cpu.dcache.demand_avg_mshr_miss_latency::.cpu.data 81655.589443                       # average overall mshr miss latency
system.cpu.dcache.demand_avg_mshr_miss_latency::total 81655.589443                       # average overall mshr miss latency
system.cpu.dcache.overall_avg_mshr_miss_latency::.cpu.data 81655.555376                       # average overall mshr miss latency
system.cpu.dcache.overall_avg_mshr_miss_latency::total 81655.555376                       # average overall mshr miss latency
system.cpu.dcache.replacements                1487119                       # number of replacements
system.cpu.dcache.ReadReq_hits::.cpu.data     35702557                       # number of ReadReq hits
system.cpu.dcache.ReadReq_hits::total        35702557                       # number of ReadReq hits
system.cpu.dcache.ReadReq_misses::.cpu.data          120                       # number of ReadReq misses
system.cpu.dcache.ReadReq_misses::total           120                       # number of ReadReq misses
system.cpu.dcache.ReadReq_miss_latency::.cpu.data      8821000                       # number of ReadReq miss cycles
system.cpu.dcache.ReadReq_miss_latency::total      8821000                       # number of ReadReq miss cycles
system.cpu.dcache.ReadReq_accesses::.cpu.data     35702677                       # number of ReadReq accesses(hits+misses)
system.cpu.dcache.ReadReq_accesses::total     35702677                       # number of ReadReq accesses(hits+misses)
system.cpu.dcache.ReadReq_miss_rate::.cpu.data     0.000003                       # miss rate for ReadReq accesses
system.cpu.dcache.ReadReq_miss_rate::total     0.000003                       # miss rate for ReadReq accesses
system.cpu.dcache.ReadReq_avg_miss_latency::.cpu.data 73508.333333                       # average ReadReq miss latency
system.cpu.dcache.ReadReq_avg_miss_latency::total 73508.333333                       # average ReadReq miss latency
system.cpu.dcache.ReadReq_mshr_hits::.cpu.data            6                       # number of ReadReq MSHR hits
system.cpu.dcache.ReadReq_mshr_hits::total            6                       # number of ReadReq MSHR hits
system.cpu.dcache.ReadReq_mshr_misses::.cpu.data          114                       # number of ReadReq MSHR misses
system.cpu.dcache.ReadReq_mshr_misses::total          114                       # number of ReadReq MSHR misses
system.cpu.dcache.ReadReq_mshr_miss_latency::.cpu.data      8289500                       # number of ReadReq MSHR miss cycles
system.cpu.dcache.ReadReq_mshr_miss_latency::total      8289500                       # number of ReadReq MSHR miss cycles
system.cpu.dcache.ReadReq_mshr_miss_rate::.cpu.data     0.000003                       # mshr miss rate for ReadReq accesses
system.cpu.dcache.ReadReq_mshr_miss_rate::total     0.000003                       # mshr miss rate for ReadReq accesses
system.cpu.dcache.ReadReq_avg_mshr_miss_latency::.cpu.data 72714.912281                       # average ReadReq mshr miss latency
system.cpu.dcache.ReadReq_avg_mshr_miss_latency::total 72714.912281                       # average ReadReq mshr miss latency
system.cpu.dcache.WriteReq_hits::.cpu.data     10117550                       # number of WriteReq hits
system.cpu.dcache.WriteReq_hits::total       10117550                       # number of WriteReq hits
system.cpu.dcache.WriteReq_misses::.cpu.data      2974985                       # number of WriteReq misses
system.cpu.dcache.WriteReq_misses::total      2974985                       # number of WriteReq misses
system.cpu.dcache.WriteReq_miss_latency::.cpu.data 238008164500                       # number of WriteReq miss cycles
system.cpu.dcache.WriteReq_miss_latency::total 238008164500                       # number of WriteReq miss cycles
system.cpu.dcache.WriteReq_accesses::.cpu.data     13092535                       # number of WriteReq accesses(hits+misses)
system.cpu.dcache.WriteReq_accesses::total     13092535                       # number of WriteReq accesses(hits+misses)
system.cpu.dcache.WriteReq_miss_rate::.cpu.data     0.227228                       # miss rate for WriteReq accesses
system.cpu.dcache.WriteReq_miss_rate::total     0.227228                       # miss rate for WriteReq accesses
system.cpu.dcache.WriteReq_avg_miss_latency::.cpu.data 80003.147747                       # average WriteReq miss latency
system.cpu.dcache.WriteReq_avg_miss_latency::total 80003.147747                       # average WriteReq miss latency
system.cpu.dcache.WriteReq_mshr_hits::.cpu.data      1487482                       # number of WriteReq MSHR hits
system.cpu.dcache.WriteReq_mshr_hits::total      1487482                       # number of WriteReq MSHR hits
system.cpu.dcache.WriteReq_mshr_misses::.cpu.data      1487503                       # number of WriteReq MSHR misses
system.cpu.dcache.WriteReq_mshr_misses::total      1487503                       # number of WriteReq MSHR misses
system.cpu.dcache.WriteReq_mshr_miss_latency::.cpu.data 121463953500                       # number of WriteReq MSHR miss cycles
system.cpu.dcache.WriteReq_mshr_miss_latency::total 121463953500                       # number of WriteReq MSHR miss cycles
system.cpu.dcache.WriteReq_mshr_miss_rate::.cpu.data     0.113615                       # mshr miss rate for WriteReq accesses
system.cpu.dcache.WriteReq_mshr_miss_rate::total     0.113615                       # mshr miss rate for WriteReq accesses
system.cpu.dcache.WriteReq_avg_mshr_miss_latency::.cpu.data 81656.274643                       # average WriteReq mshr miss latency
system.cpu.dcache.WriteReq_avg_mshr_miss_latency::total 81656.274643                       # average WriteReq mshr miss latency
system.cpu.dcache.SoftPFReq_hits::.cpu.data           35                       # number of SoftPFReq hits
system.cpu.dcache.SoftPFReq_hits::total            35                       # number of SoftPFReq hits
system.cpu.dcache.SoftPFReq_misses::.cpu.data           17                       # number of SoftPFReq misses
system.cpu.dcache.SoftPFReq_misses::total           17                       # number of SoftPFReq misses
system.cpu.dcache.SoftPFReq_accesses::.cpu.data           52                       # number of SoftPFReq accesses(hits+misses)
system.cpu.dcache.SoftPFReq_accesses::total           52                       # number of SoftPFReq accesses(hits+misses)
system.cpu.dcache.SoftPFReq_miss_rate::.cpu.data     0.326923                       # miss rate for SoftPFReq accesses
system.cpu.dcache.SoftPFReq_miss_rate::total     0.326923                       # miss rate for SoftPFReq accesses
system.cpu.dcache.SoftPFReq_mshr_misses::.cpu.data           14                       # number of SoftPFReq MSHR misses
system.cpu.dcache.SoftPFReq_mshr_misses::total           14                       # number of SoftPFReq MSHR misses
system.cpu.dcache.SoftPFReq_mshr_miss_latency::.cpu.data      1092500                       # number of SoftPFReq MSHR miss cycles
system.cpu.dcache.SoftPFReq_mshr_miss_latency::total      1092500                       # number of SoftPFReq MSHR miss cycles
system.cpu.dcache.SoftPFReq_mshr_miss_rate::.cpu.data     0.269231                       # mshr miss rate for SoftPFReq accesses
system.cpu.dcache.SoftPFReq_mshr_miss_rate::total     0.269231                       # mshr miss rate for SoftPFReq accesses
system.cpu.dcache.SoftPFReq_avg_mshr_miss_latency::.cpu.data 78035.714286                       # average SoftPFReq mshr miss latency
system.cpu.dcache.SoftPFReq_avg_mshr_miss_latency::total 78035.714286                       # average SoftPFReq mshr miss latency
system.cpu.dcache.LoadLockedReq_hits::.cpu.data           14                       # number of LoadLockedReq hits
system.cpu.dcache.LoadLockedReq_hits::total           14                       # number of LoadLockedReq hits
system.cpu.dcache.LoadLockedReq_accesses::.cpu.data           14                       # number of LoadLockedReq accesses(hits+misses)
system.cpu.dcache.LoadLockedReq_accesses::total           14                       # number of LoadLockedReq accesses(hits+misses)
system.cpu.dcache.StoreCondReq_hits::.cpu.data           14                       # number of StoreCondReq hits
system.cpu.dcache.StoreCondReq_hits::total           14                       # number of StoreCondReq hits
system.cpu.dcache.StoreCondReq_accesses::.cpu.data           14                       # number of StoreCondReq accesses(hits+misses)
system.cpu.dcache.StoreCondReq_accesses::total           14                       # number of StoreCondReq accesses(hits+misses)
system.cpu.dcache.power_state.pwrStateResidencyTicks::UNDEFINED 175150617000                       # Cumulative time (in ticks) in various power states
system.cpu.dcache.tags.tagsinuse           511.815897                       # Cycle average of tags in use
system.cpu.dcache.tags.total_refs            47307801                       # Total number of references to valid blocks.
system.cpu.dcache.tags.sampled_refs           1487631                       # Sample count of references to valid blocks.
system.cpu.dcache.tags.avg_refs             31.800763                       # Average number of references to valid blocks.
system.cpu.dcache.tags.warmup_cycle            176500                       # Cycle when the warmup percentage was hit.
system.cpu.dcache.tags.occ_blocks::.cpu.data   511.815897                       # Average occupied blocks per requestor
system.cpu.dcache.tags.occ_percent::.cpu.data     0.999640                       # Average percentage of cache occupancy
system.cpu.dcache.tags.occ_percent::total     0.999640                       # Average percentage of cache occupancy
system.cpu.dcache.tags.occ_task_id_blocks::1024          512                       # Occupied blocks per task id
system.cpu.dcache.tags.age_task_id_blocks_1024::0           86                       # Occupied blocks per task id
system.cpu.dcache.tags.age_task_id_blocks_1024::1          424                       # Occupied blocks per task id
system.cpu.dcache.tags.age_task_id_blocks_1024::4            2                       # Occupied blocks per task id
system.cpu.dcache.tags.occ_task_id_percent::1024            1                       # Percentage of cache occupancy per task id
system.cpu.dcache.tags.tag_accesses          99078215                       # Number of tag accesses
system.cpu.dcache.tags.data_accesses         99078215                       # Number of data accesses
system.cpu.dcache.tags.power_state.pwrStateResidencyTicks::UNDEFINED 175150617000                       # Cumulative time (in ticks) in various power states
system.cpu.dtb.instHits                             0                       # ITB inst hits
system.cpu.dtb.instMisses                           0                       # ITB inst misses
system.cpu.dtb.readHits                             0                       # DTB read hits
system.cpu.dtb.readMisses                           0                       # DTB read misses
system.cpu.dtb.writeHits                            0                       # DTB write hits
system.cpu.dtb.writeMisses                          0                       # DTB write misses
system.cpu.dtb.inserts                              0                       # Number of times an entry is inserted into the TLB
system.cpu.dtb.flushTlb                             0                       # Number of times complete TLB was flushed
system.cpu.dtb.flushTlbMva                          0                       # Number of times TLB was flushed by MVA
system.cpu.dtb.flushTlbMvaAsid                      0                       # Number of times TLB was flushed by MVA & ASID
system.cpu.dtb.flushTlbAsid                         0                       # Number of times TLB was flushed by ASID
system.cpu.dtb.flushedEntries                       0                       # Number of entries that have been flushed from TLB
system.cpu.dtb.alignFaults                          0                       # Number of TLB faults due to alignment restrictions
system.cpu.dtb.prefetchFaults                       0                       # Number of TLB faults due to prefetch
system.cpu.dtb.domainFaults                         0                       # Number of TLB faults due to domain restrictions
system.cpu.dtb.permsFaults                          0                       # Number of TLB faults due to permissions restrictions
system.cpu.dtb.readAccesses                         0                       # DTB read accesses
system.cpu.dtb.writeAccesses                        0                       # DTB write accesses
system.cpu.dtb.instAccesses                         0                       # ITB inst accesses
system.cpu.dtb.hits                                 0                       # Total TLB (inst and data) hits
system.cpu.dtb.misses                               0                       # Total TLB (inst and data) misses
system.cpu.dtb.accesses                             0                       # Total TLB (inst and data) accesses
system.cpu.dtb.stage2_mmu.stage2_tlb.instHits            0                       # ITB inst hits
system.cpu.dtb.stage2_mmu.stage2_tlb.instMisses            0                       # ITB inst misses
system.cpu.dtb.stage2_mmu.stage2_tlb.readHits            0                       # DTB read hits
system.cpu.dtb.stage2_mmu.stage2_tlb.readMisses            0                       # DTB read misses
system.cpu.dtb.stage2_mmu.stage2_tlb.writeHits            0                       # DTB write hits
system.cpu.dtb.stage2_mmu.stage2_tlb.writeMisses            0                       # DTB write misses
system.cpu.dtb.stage2_mmu.stage2_tlb.inserts            0                       # Number of times an entry is inserted into the TLB
system.cpu.dtb.stage2_mmu.stage2_tlb.flushTlb            0                       # Number of times complete TLB was flushed
system.cpu.dtb.stage2_mmu.stage2_tlb.flushTlbMva            0                       # Number of times TLB was flushed by MVA
system.cpu.dtb.stage2_mmu.stage2_tlb.flushTlbMvaAsid            0                       # Number of times TLB was flushed by MVA & ASID
system.cpu.dtb.stage2_mmu.stage2_tlb.flushTlbAsid            0                       # Number of times TLB was flushed by ASID
system.cpu.dtb.stage2_mmu.stage2_tlb.flushedEntries            0                       # Number of entries that have been flushed from TLB
system.cpu.dtb.stage2_mmu.stage2_tlb.alignFaults            0                       # Number of TLB faults due to alignment restrictions
system.cpu.dtb.stage2_mmu.stage2_tlb.prefetchFaults            0                       # Number of TLB faults due to prefetch
system.cpu.dtb.stage2_mmu.stage2_tlb.domainFaults            0                       # Number of TLB faults due to domain restrictions
system.cpu.dtb.stage2_mmu.stage2_tlb.permsFaults            0                       # Number of TLB faults due to permissions restrictions
system.cpu.dtb.stage2_mmu.stage2_tlb.readAccesses            0                       # DTB read accesses
system.cpu.dtb.stage2_mmu.stage2_tlb.writeAccesses            0                       # DTB write accesses
system.cpu.dtb.stage2_mmu.stage2_tlb.instAccesses            0                       # ITB inst accesses
system.cpu.dtb.stage2_mmu.stage2_tlb.hits            0                       # Total TLB (inst and data) hits
system.cpu.dtb.stage2_mmu.stage2_tlb.misses            0                       # Total TLB (inst and data) misses
system.cpu.dtb.stage2_mmu.stage2_tlb.accesses            0                       # Total TLB (inst and data) accesses
system.cpu.dtb.stage2_mmu.stage2_tlb.walker.walks            0                       # Table walker walks requested
system.cpu.dtb.stage2_mmu.stage2_tlb.walker.requestOrigin_Requested::Data            0                       # Table walker requests started/completed, data/inst
system.cpu.dtb.stage2_mmu.stage2_tlb.walker.requestOrigin_Requested::Inst            0                       # Table walker requests started/completed, data/inst
system.cpu.dtb.stage2_mmu.stage2_tlb.walker.requestOrigin_Requested::total            0                       # Table walker requests started/completed, data/inst
system.cpu.dtb.stage2_mmu.stage2_tlb.walker.requestOrigin_Completed::Data            0                       # Table walker requests started/completed, data/inst
system.cpu.dtb.stage2_mmu.stage2_tlb.walker.requestOrigin_Completed::Inst            0                       # Table walker requests started/completed, data/inst
system.cpu.dtb.stage2_mmu.stage2_tlb.walker.requestOrigin_Completed::total            0                       # Table walker requests started/completed, data/inst
system.cpu.dtb.stage2_mmu.stage2_tlb.walker.requestOrigin::total            0                       # Table walker requests started/completed, data/inst
system.cpu.dtb.stage2_mmu.stage2_tlb.walker.power_state.pwrStateResidencyTicks::UNDEFINED 175150617000                       # Cumulative time (in ticks) in various power states
system.cpu.dtb.walker.walks                         0                       # Table walker walks requested
system.cpu.dtb.walker.requestOrigin_Requested::Data            0                       # Table walker requests started/completed, data/inst
system.cpu.dtb.walker.requestOrigin_Requested::Inst            0                       # Table walker requests started/completed, data/inst
system.cpu.dtb.walker.requestOrigin_Requested::total            0                       # Table walker requests started/completed, data/inst
system.cpu.dtb.walker.requestOrigin_Completed::Data            0                       # Table walker requests started/completed, data/inst
system.cpu.dtb.walker.requestOrigin_Completed::Inst            0                       # Table walker requests started/completed, data/inst
system.cpu.dtb.walker.requestOrigin_Completed::total            0                       # Table walker requests started/completed, data/inst
system.cpu.dtb.walker.requestOrigin::total            0                       # Table walker requests started/completed, data/inst
system.cpu.dtb.walker.power_state.pwrStateResidencyTicks::UNDEFINED 175150617000                       # Cumulative time (in ticks) in various power states
system.cpu.fetch2.intInstructions            49669780                       # Number of integer instructions successfully decoded
system.cpu.fetch2.fpInstructions                    0                       # Number of floating point instructions successfully decoded
system.cpu.fetch2.vecInstructions                   0                       # Number of SIMD instructions successfully decoded
system.cpu.fetch2.loadInstructions           37092352                       # Number of memory load instructions successfully decoded
system.cpu.fetch2.storeInstructions          13161138                       # Number of memory store instructions successfully decoded
system.cpu.fetch2.amoInstructions                   0                       # Number of memory atomic instructions successfully decoded
system.cpu.icache.demand_hits::.cpu.inst      6045776                       # number of demand (read+write) hits
system.cpu.icache.demand_hits::total          6045776                       # number of demand (read+write) hits
system.cpu.icache.overall_hits::.cpu.inst      6045776                       # number of overall hits
system.cpu.icache.overall_hits::total         6045776                       # number of overall hits
system.cpu.icache.demand_misses::.cpu.inst          683                       # number of demand (read+write) misses
system.cpu.icache.demand_misses::total            683                       # number of demand (read+write) misses
system.cpu.icache.overall_misses::.cpu.inst          683                       # number of overall misses
system.cpu.icache.overall_misses::total           683                       # number of overall misses
system.cpu.icache.demand_miss_latency::.cpu.inst     41264000                       # number of demand (read+write) miss cycles
system.cpu.icache.demand_miss_latency::total     41264000                       # number of demand (read+write) miss cycles
system.cpu.icache.overall_miss_latency::.cpu.inst     41264000                       # number of overall miss cycles
system.cpu.icache.overall_miss_latency::total     41264000                       # number of overall miss cycles
system.cpu.icache.demand_accesses::.cpu.inst      6046459                       # number of demand (read+write) accesses
system.cpu.icache.demand_accesses::total      6046459                       # number of demand (read+write) accesses
system.cpu.icache.overall_accesses::.cpu.inst      6046459                       # number of overall (read+write) accesses
system.cpu.icache.overall_accesses::total      6046459                       # number of overall (read+write) accesses
system.cpu.icache.demand_miss_rate::.cpu.inst     0.000113                       # miss rate for demand accesses
system.cpu.icache.demand_miss_rate::total     0.000113                       # miss rate for demand accesses
system.cpu.icache.overall_miss_rate::.cpu.inst     0.000113                       # miss rate for overall accesses
system.cpu.icache.overall_miss_rate::total     0.000113                       # miss rate for overall accesses
system.cpu.icache.demand_avg_miss_latency::.cpu.inst 60415.812592                       # average overall miss latency
system.cpu.icache.demand_avg_miss_latency::total 60415.812592                       # average overall miss latency
system.cpu.icache.overall_avg_miss_latency::.cpu.inst 60415.812592                       # average overall miss latency
system.cpu.icache.overall_avg_miss_latency::total 60415.812592                       # average overall miss latency
system.cpu.icache.blocked_cycles::no_mshrs            0                       # number of cycles access was blocked
system.cpu.icache.blocked_cycles::no_targets            0                       # number of cycles access was blocked
system.cpu.icache.blocked::no_mshrs                 0                       # number of cycles access was blocked
system.cpu.icache.blocked::no_targets               0                       # number of cycles access was blocked
system.cpu.icache.avg_blocked_cycles::no_mshrs          nan                       # average number of cycles each access was blocked
system.cpu.icache.avg_blocked_cycles::no_targets          nan                       # average number of cycles each access was blocked
system.cpu.icache.writebacks::.writebacks          439                       # number of writebacks
system.cpu.icache.writebacks::total               439                       # number of writebacks
system.cpu.icache.demand_mshr_misses::.cpu.inst          683                       # number of demand (read+write) MSHR misses
system.cpu.icache.demand_mshr_misses::total          683                       # number of demand (read+write) MSHR misses
system.cpu.icache.overall_mshr_misses::.cpu.inst          683                       # number of overall MSHR misses
system.cpu.icache.overall_mshr_misses::total          683                       # number of overall MSHR misses
system.cpu.icache.demand_mshr_miss_latency::.cpu.inst     40581000                       # number of demand (read+write) MSHR miss cycles
system.cpu.icache.demand_mshr_miss_latency::total     40581000                       # number of demand (read+write) MSHR miss cycles
system.cpu.icache.overall_mshr_miss_latency::.cpu.inst     40581000                       # number of overall MSHR miss cycles
system.cpu.icache.overall_mshr_miss_latency::total     40581000                       # number of overall MSHR miss cycles
system.cpu.icache.demand_mshr_miss_rate::.cpu.inst     0.000113                       # mshr miss rate for demand accesses
system.cpu.icache.demand_mshr_miss_rate::total     0.000113                       # mshr miss rate for demand accesses
system.cpu.icache.overall_mshr_miss_rate::.cpu.inst     0.000113                       # mshr miss rate for overall accesses
system.cpu.icache.overall_mshr_miss_rate::total     0.000113                       # mshr miss rate for overall accesses
system.cpu.icache.demand_avg_mshr_miss_latency::.cpu.inst 59415.812592                       # average overall mshr miss latency
system.cpu.icache.demand_avg_mshr_miss_latency::total 59415.812592                       # average overall mshr miss latency
system.cpu.icache.overall_avg_mshr_miss_latency::.cpu.inst 59415.812592                       # average overall mshr miss latency
system.cpu.icache.overall_avg_mshr_miss_latency::total 59415.812592                       # average overall mshr miss latency
system.cpu.icache.replacements                    439                       # number of replacements
system.cpu.icache.ReadReq_hits::.cpu.inst      6045776                       # number of ReadReq hits
system.cpu.icache.ReadReq_hits::total         6045776                       # number of ReadReq hits
system.cpu.icache.ReadReq_misses::.cpu.inst          683                       # number of ReadReq misses
system.cpu.icache.ReadReq_misses::total           683                       # number of ReadReq misses
system.cpu.icache.ReadReq_miss_latency::.cpu.inst     41264000                       # number of ReadReq miss cycles
system.cpu.icache.ReadReq_miss_latency::total     41264000                       # number of ReadReq miss cycles
system.cpu.icache.ReadReq_accesses::.cpu.inst      6046459                       # number of ReadReq accesses(hits+misses)
system.cpu.icache.ReadReq_accesses::total      6046459                       # number of ReadReq accesses(hits+misses)
system.cpu.icache.ReadReq_miss_rate::.cpu.inst     0.000113                       # miss rate for ReadReq accesses
system.cpu.icache.ReadReq_miss_rate::total     0.000113                       # miss rate for ReadReq accesses
system.cpu.icache.ReadReq_avg_miss_latency::.cpu.inst 60415.812592                       # average ReadReq miss latency
system.cpu.icache.ReadReq_avg_miss_latency::total 60415.812592                       # average ReadReq miss latency
system.cpu.icache.ReadReq_mshr_misses::.cpu.inst          683                       # number of ReadReq MSHR misses
system.cpu.icache.ReadReq_mshr_misses::total          683                       # number of ReadReq MSHR misses
system.cpu.icache.ReadReq_mshr_miss_latency::.cpu.inst     40581000                       # number of ReadReq MSHR miss cycles
system.cpu.icache.ReadReq_mshr_miss_latency::total     40581000                       # number of ReadReq MSHR miss cycles
system.cpu.icache.ReadReq_mshr_miss_rate::.cpu.inst     0.000113                       # mshr miss rate for ReadReq accesses
system.cpu.icache.ReadReq_mshr_miss_rate::total     0.000113                       # mshr miss rate for ReadReq accesses
system.cpu.icache.ReadReq_avg_mshr_miss_latency::.cpu.inst 59415.812592                       # average ReadReq mshr miss latency
system.cpu.icache.ReadReq_avg_mshr_miss_latency::total 59415.812592                       # average ReadReq mshr miss latency
system.cpu.icache.power_state.pwrStateResidencyTicks::UNDEFINED 175150617000                       # Cumulative time (in ticks) in various power states
system.cpu.icache.tags.tagsinuse           243.972397                       # Cycle average of tags in use
system.cpu.icache.tags.total_refs             6046459                       # Total number of references to valid blocks.
system.cpu.icache.tags.sampled_refs               683                       # Sample count of references to valid blocks.
system.cpu.icache.tags.avg_refs           8852.795022                       # Average number of references to valid blocks.
system.cpu.icache.tags.warmup_cycle             87500                       # Cycle when the warmup percentage was hit.
system.cpu.icache.tags.occ_blocks::.cpu.inst   243.972397                       # Average occupied blocks per requestor
system.cpu.icache.tags.occ_percent::.cpu.inst     0.953017                       # Average percentage of cache occupancy
system.cpu.icache.tags.occ_percent::total     0.953017                       # Average percentage of cache occupancy
system.cpu.icache.tags.occ_task_id_blocks::1024          244                       # Occupied blocks per task id
system.cpu.icache.tags.age_task_id_blocks_1024::4          244                       # Occupied blocks per task id
system.cpu.icache.tags.occ_task_id_percent::1024     0.953125                       # Percentage of cache occupancy per task id
system.cpu.icache.tags.tag_accesses          12093601                       # Number of tag accesses
system.cpu.icache.tags.data_accesses         12093601                       # Number of data accesses
system.cpu.icache.tags.power_state.pwrStateResidencyTicks::UNDEFINED 175150617000                       # Cumulative time (in ticks) in various power states
system.cpu.itb.instHits                             0                       # ITB inst hits
system.cpu.itb.instMisses                           0                       # ITB inst misses
system.cpu.itb.readHits                             0                       # DTB read hits
system.cpu.itb.readMisses                           0                       # DTB read misses
system.cpu.itb.writeHits                            0                       # DTB write hits
system.cpu.itb.writeMisses                          0                       # DTB write misses
system.cpu.itb.inserts                              0                       # Number of times an entry is inserted into the TLB
system.cpu.itb.flushTlb                             0                       # Number of times complete TLB was flushed
system.cpu.itb.flushTlbMva                          0                       # Number of times TLB was flushed by MVA
system.cpu.itb.flushTlbMvaAsid                      0                       # Number of times TLB was flushed by MVA & ASID
system.cpu.itb.flushTlbAsid                         0                       # Number of times TLB was flushed by ASID
system.cpu.itb.flushedEntries                       0                       # Number of entries that have been flushed from TLB
system.cpu.itb.alignFaults                          0                       # Number of TLB faults due to alignment restrictions
system.cpu.itb.prefetchFaults                       0                       # Number of TLB faults due to prefetch
system.cpu.itb.domainFaults                         0                       # Number of TLB faults due to domain restrictions
system.cpu.itb.permsFaults                          0                       # Number of TLB faults due to permissions restrictions
system.cpu.itb.readAccesses                         0                       # DTB read accesses
system.cpu.itb.writeAccesses                        0                       # DTB write accesses
system.cpu.itb.instAccesses                         0                       # ITB inst accesses
system.cpu.itb.hits                                 0                       # Total TLB (inst and data) hits
system.cpu.itb.misses                               0                       # Total TLB (inst and data) misses
system.cpu.itb.accesses                             0                       # Total TLB (inst and data) accesses
system.cpu.itb.stage2_mmu.stage2_tlb.instHits            0                       # ITB inst hits
system.cpu.itb.stage2_mmu.stage2_tlb.instMisses            0                       # ITB inst misses
system.cpu.itb.stage2_mmu.stage2_tlb.readHits            0                       # DTB read hits
system.cpu.itb.stage2_mmu.stage2_tlb.readMisses            0                       # DTB read misses
system.cpu.itb.stage2_mmu.stage2_tlb.writeHits            0                       # DTB write hits
system.cpu.itb.stage2_mmu.stage2_tlb.writeMisses            0                       # DTB write misses
system.cpu.itb.stage2_mmu.stage2_tlb.inserts            0                       # Number of times an entry is inserted into the TLB
system.cpu.itb.stage2_mmu.stage2_tlb.flushTlb            0                       # Number of times complete TLB was flushed
system.cpu.itb.stage2_mmu.stage2_tlb.flushTlbMva            0                       # Number of times TLB was flushed by MVA
system.cpu.itb.stage2_mmu.stage2_tlb.flushTlbMvaAsid            0                       # Number of times TLB was flushed by MVA & ASID
system.cpu.itb.stage2_mmu.stage2_tlb.flushTlbAsid            0                       # Number of times TLB was flushed by ASID
system.cpu.itb.stage2_mmu.stage2_tlb.flushedEntries            0                       # Number of entries that have been flushed from TLB
system.cpu.itb.stage2_mmu.stage2_tlb.alignFaults            0                       # Number of TLB faults due to alignment restrictions
system.cpu.itb.stage2_mmu.stage2_tlb.prefetchFaults            0                       # Number of TLB faults due to prefetch
system.cpu.itb.stage2_mmu.stage2_tlb.domainFaults            0                       # Number of TLB faults due to domain restrictions
system.cpu.itb.stage2_mmu.stage2_tlb.permsFaults            0                       # Number of TLB faults due to permissions restrictions
system.cpu.itb.stage2_mmu.stage2_tlb.readAccesses            0                       # DTB read accesses
system.cpu.itb.stage2_mmu.stage2_tlb.writeAccesses            0                       # DTB write accesses
system.cpu.itb.stage2_mmu.stage2_tlb.instAccesses            0                       # ITB inst accesses
system.cpu.itb.stage2_mmu.stage2_tlb.hits            0                       # Total TLB (inst and data) hits
system.cpu.itb.stage2_mmu.stage2_tlb.misses            0                       # Total TLB (inst and data) misses
system.cpu.itb.stage2_mmu.stage2_tlb.accesses            0                       # Total TLB (inst and data) accesses
system.cpu.itb.stage2_mmu.stage2_tlb.walker.walks            0                       # Table walker walks requested
system.cpu.itb.stage2_mmu.stage2_tlb.walker.requestOrigin_Requested::Data            0                       # Table walker requests started/completed, data/inst
system.cpu.itb.stage2_mmu.stage2_tlb.walker.requestOrigin_Requested::Inst            0                       # Table walker requests started/completed, data/inst
system.cpu.itb.stage2_mmu.stage2_tlb.walker.requestOrigin_Requested::total            0                       # Table walker requests started/completed, data/inst
system.cpu.itb.stage2_mmu.stage2_tlb.walker.requestOrigin_Completed::Data            0                       # Table walker requests started/completed, data/inst
system.cpu.itb.stage2_mmu.stage2_tlb.walker.requestOrigin_Completed::Inst            0                       # Table walker requests started/completed, data/inst
system.cpu.itb.stage2_mmu.stage2_tlb.walker.requestOrigin_Completed::total            0                       # Table walker requests started/completed, data/inst
system.cpu.itb.stage2_mmu.stage2_tlb.walker.requestOrigin::total            0                       # Table walker requests started/completed, data/inst
system.cpu.itb.stage2_mmu.stage2_tlb.walker.power_state.pwrStateResidencyTicks::UNDEFINED 175150617000                       # Cumulative time (in ticks) in various power states
system.cpu.itb.walker.walks                         0                       # Table walker walks requested
system.cpu.itb.walker.requestOrigin_Requested::Data            0                       # Table walker requests started/completed, data/inst
system.cpu.itb.walker.requestOrigin_Requested::Inst            0                       # Table walker requests started/completed, data/inst
system.cpu.itb.walker.requestOrigin_Requested::total            0                       # Table walker requests started/completed, data/inst
system.cpu.itb.walker.requestOrigin_Completed::Data            0                       # Table walker requests started/completed, data/inst
system.cpu.itb.walker.requestOrigin_Completed::Inst            0                       # Table walker requests started/completed, data/inst
system.cpu.itb.walker.requestOrigin_Completed::total            0                       # Table walker requests started/completed, data/inst
system.cpu.itb.walker.requestOrigin::total            0                       # Table walker requests started/completed, data/inst
system.cpu.itb.walker.power_state.pwrStateResidencyTicks::UNDEFINED 175150617000                       # Cumulative time (in ticks) in various power states
system.cpu.power_state.pwrStateResidencyTicks::ON 175150617000                       # Cumulative time (in ticks) in various power states
system.cpu.thread0.numInsts                 100000000                       # Number of Instructions committed
system.cpu.thread0.numOps                   100003630                       # Number of Ops committed
system.cpu.thread0.numMemRefs                       0                       # Number of Memory References
system.cpu_clk_domain.clock                       500                       # Clock period in ticks
system.cpu_voltage_domain.voltage                   1                       # Voltage in Volts
system.l2.demand_hits::.cpu.inst                  186                       # number of demand (read+write) hits
system.l2.demand_hits::.cpu.data                   13                       # number of demand (read+write) hits
system.l2.demand_hits::total                      199                       # number of demand (read+write) hits
system.l2.overall_hits::.cpu.inst                 186                       # number of overall hits
system.l2.overall_hits::.cpu.data                  13                       # number of overall hits
system.l2.overall_hits::total                     199                       # number of overall hits
system.l2.demand_misses::.cpu.inst                497                       # number of demand (read+write) misses
system.l2.demand_misses::.cpu.data            1487618                       # number of demand (read+write) misses
system.l2.demand_misses::total                1488115                       # number of demand (read+write) misses
system.l2.overall_misses::.cpu.inst               497                       # number of overall misses
system.l2.overall_misses::.cpu.data           1487618                       # number of overall misses
system.l2.overall_misses::total               1488115                       # number of overall misses
system.l2.demand_miss_latency::.cpu.inst     37580000                       # number of demand (read+write) miss cycles
system.l2.demand_miss_latency::.cpu.data 119241736500                       # number of demand (read+write) miss cycles
system.l2.demand_miss_latency::total     119279316500                       # number of demand (read+write) miss cycles
system.l2.overall_miss_latency::.cpu.inst     37580000                       # number of overall miss cycles
system.l2.overall_miss_latency::.cpu.data 119241736500                       # number of overall miss cycles
system.l2.overall_miss_latency::total    119279316500                       # number of overall miss cycles
system.l2.demand_accesses::.cpu.inst              683                       # number of demand (read+write) accesses
system.l2.demand_accesses::.cpu.data          1487631                       # number of demand (read+write) accesses
system.l2.demand_accesses::total              1488314                       # number of demand (read+write) accesses
system.l2.overall_accesses::.cpu.inst             683                       # number of overall (read+write) accesses
system.l2.overall_accesses::.cpu.data         1487631                       # number of overall (read+write) accesses
system.l2.overall_accesses::total             1488314                       # number of overall (read+write) accesses
system.l2.demand_miss_rate::.cpu.inst        0.727672                       # miss rate for demand accesses
system.l2.demand_miss_rate::.cpu.data        0.999991                       # miss rate for demand accesses
system.l2.demand_miss_rate::total            0.999866                       # miss rate for demand accesses
system.l2.overall_miss_rate::.cpu.inst       0.727672                       # miss rate for overall accesses
system.l2.overall_miss_rate::.cpu.data       0.999991                       # miss rate for overall accesses
system.l2.overall_miss_rate::total           0.999866                       # miss rate for overall accesses
system.l2.demand_avg_miss_latency::.cpu.inst 75613.682093                       # average overall miss latency
system.l2.demand_avg_miss_latency::.cpu.data 80156.153327                       # average overall miss latency
system.l2.demand_avg_miss_latency::total 80154.636234                       # average overall miss latency
system.l2.overall_avg_miss_latency::.cpu.inst 75613.682093                       # average overall miss latency
system.l2.overall_avg_miss_latency::.cpu.data 80156.153327                       # average overall miss latency
system.l2.overall_avg_miss_latency::total 80154.636234                       # average overall miss latency
system.l2.blocked_cycles::no_mshrs                  0                       # number of cycles access was blocked
system.l2.blocked_cycles::no_targets                0                       # number of cycles access was blocked
system.l2.blocked::no_mshrs                         0                       # number of cycles access was blocked
system.l2.blocked::no_targets                       0                       # number of cycles access was blocked
system.l2.avg_blocked_cycles::no_mshrs            nan                       # average number of cycles each access was blocked
system.l2.avg_blocked_cycles::no_targets          nan                       # average number of cycles each access was blocked
system.l2.writebacks::.writebacks             1454751                       # number of writebacks
system.l2.writebacks::total                   1454751                       # number of writebacks
system.l2.demand_mshr_hits::.cpu.inst               1                       # number of demand (read+write) MSHR hits
system.l2.demand_mshr_hits::.cpu.data               3                       # number of demand (read+write) MSHR hits
system.l2.demand_mshr_hits::total                   4                       # number of demand (read+write) MSHR hits
system.l2.overall_mshr_hits::.cpu.inst              1                       # number of overall MSHR hits
system.l2.overall_mshr_hits::.cpu.data              3                       # number of overall MSHR hits
system.l2.overall_mshr_hits::total                  4                       # number of overall MSHR hits
system.l2.demand_mshr_misses::.cpu.inst           496                       # number of demand (read+write) MSHR misses
system.l2.demand_mshr_misses::.cpu.data       1487615                       # number of demand (read+write) MSHR misses
system.l2.demand_mshr_misses::total           1488111                       # number of demand (read+write) MSHR misses
system.l2.overall_mshr_misses::.cpu.inst          496                       # number of overall MSHR misses
system.l2.overall_mshr_misses::.cpu.data      1487615                       # number of overall MSHR misses
system.l2.overall_mshr_misses::total          1488111                       # number of overall MSHR misses
system.l2.demand_mshr_miss_latency::.cpu.inst     32551500                       # number of demand (read+write) MSHR miss cycles
system.l2.demand_mshr_miss_latency::.cpu.data 104365385000                       # number of demand (read+write) MSHR miss cycles
system.l2.demand_mshr_miss_latency::total 104397936500                       # number of demand (read+write) MSHR miss cycles
system.l2.overall_mshr_miss_latency::.cpu.inst     32551500                       # number of overall MSHR miss cycles
system.l2.overall_mshr_miss_latency::.cpu.data 104365385000                       # number of overall MSHR miss cycles
system.l2.overall_mshr_miss_latency::total 104397936500                       # number of overall MSHR miss cycles
system.l2.demand_mshr_miss_rate::.cpu.inst     0.726208                       # mshr miss rate for demand accesses
system.l2.demand_mshr_miss_rate::.cpu.data     0.999989                       # mshr miss rate for demand accesses
system.l2.demand_mshr_miss_rate::total       0.999864                       # mshr miss rate for demand accesses
system.l2.overall_mshr_miss_rate::.cpu.inst     0.726208                       # mshr miss rate for overall accesses
system.l2.overall_mshr_miss_rate::.cpu.data     0.999989                       # mshr miss rate for overall accesses
system.l2.overall_mshr_miss_rate::total      0.999864                       # mshr miss rate for overall accesses
system.l2.demand_avg_mshr_miss_latency::.cpu.inst 65628.024194                       # average overall mshr miss latency
system.l2.demand_avg_mshr_miss_latency::.cpu.data 70156.179522                       # average overall mshr miss latency
system.l2.demand_avg_mshr_miss_latency::total 70154.670250                       # average overall mshr miss latency
system.l2.overall_avg_mshr_miss_latency::.cpu.inst 65628.024194                       # average overall mshr miss latency
system.l2.overall_avg_mshr_miss_latency::.cpu.data 70156.179522                       # average overall mshr miss latency
system.l2.overall_avg_mshr_miss_latency::total 70154.670250                       # average overall mshr miss latency
system.l2.replacements                        1455343                       # number of replacements
system.l2.WritebackDirty_hits::.writebacks      1487009                       # number of WritebackDirty hits
system.l2.WritebackDirty_hits::total          1487009                       # number of WritebackDirty hits
system.l2.WritebackDirty_accesses::.writebacks      1487009                       # number of WritebackDirty accesses(hits+misses)
system.l2.WritebackDirty_accesses::total      1487009                       # number of WritebackDirty accesses(hits+misses)
system.l2.WritebackClean_hits::.writebacks          416                       # number of WritebackClean hits
system.l2.WritebackClean_hits::total              416                       # number of WritebackClean hits
system.l2.WritebackClean_accesses::.writebacks          416                       # number of WritebackClean accesses(hits+misses)
system.l2.WritebackClean_accesses::total          416                       # number of WritebackClean accesses(hits+misses)
system.l2.ReadExReq_misses::.cpu.data         1487503                       # number of ReadExReq misses
system.l2.ReadExReq_misses::total             1487503                       # number of ReadExReq misses
system.l2.ReadExReq_miss_latency::.cpu.data 119232698500                       # number of ReadExReq miss cycles
system.l2.ReadExReq_miss_latency::total  119232698500                       # number of ReadExReq miss cycles
system.l2.ReadExReq_accesses::.cpu.data       1487503                       # number of ReadExReq accesses(hits+misses)
system.l2.ReadExReq_accesses::total           1487503                       # number of ReadExReq accesses(hits+misses)
system.l2.ReadExReq_miss_rate::.cpu.data            1                       # miss rate for ReadExReq accesses
system.l2.ReadExReq_miss_rate::total                1                       # miss rate for ReadExReq accesses
system.l2.ReadExReq_avg_miss_latency::.cpu.data 80156.274307                       # average ReadExReq miss latency
system.l2.ReadExReq_avg_miss_latency::total 80156.274307                       # average ReadExReq miss latency
system.l2.ReadExReq_mshr_misses::.cpu.data      1487503                       # number of ReadExReq MSHR misses
system.l2.ReadExReq_mshr_misses::total        1487503                       # number of ReadExReq MSHR misses
system.l2.ReadExReq_mshr_miss_latency::.cpu.data 104357668500                       # number of ReadExReq MSHR miss cycles
system.l2.ReadExReq_mshr_miss_latency::total 104357668500                       # number of ReadExReq MSHR miss cycles
system.l2.ReadExReq_mshr_miss_rate::.cpu.data            1                       # mshr miss rate for ReadExReq accesses
system.l2.ReadExReq_mshr_miss_rate::total            1                       # mshr miss rate for ReadExReq accesses
system.l2.ReadExReq_avg_mshr_miss_latency::.cpu.data 70156.274307                       # average ReadExReq mshr miss latency
system.l2.ReadExReq_avg_mshr_miss_latency::total 70156.274307                       # average ReadExReq mshr miss latency
system.l2.ReadCleanReq_hits::.cpu.inst            186                       # number of ReadCleanReq hits
system.l2.ReadCleanReq_hits::total                186                       # number of ReadCleanReq hits
system.l2.ReadCleanReq_misses::.cpu.inst          497                       # number of ReadCleanReq misses
system.l2.ReadCleanReq_misses::total              497                       # number of ReadCleanReq misses
system.l2.ReadCleanReq_miss_latency::.cpu.inst     37580000                       # number of ReadCleanReq miss cycles
system.l2.ReadCleanReq_miss_latency::total     37580000                       # number of ReadCleanReq miss cycles
system.l2.ReadCleanReq_accesses::.cpu.inst          683                       # number of ReadCleanReq accesses(hits+misses)
system.l2.ReadCleanReq_accesses::total            683                       # number of ReadCleanReq accesses(hits+misses)
system.l2.ReadCleanReq_miss_rate::.cpu.inst     0.727672                       # miss rate for ReadCleanReq accesses
system.l2.ReadCleanReq_miss_rate::total      0.727672                       # miss rate for ReadCleanReq accesses
system.l2.ReadCleanReq_avg_miss_latency::.cpu.inst 75613.682093                       # average ReadCleanReq miss latency
system.l2.ReadCleanReq_avg_miss_latency::total 75613.682093                       # average ReadCleanReq miss latency
system.l2.ReadCleanReq_mshr_hits::.cpu.inst            1                       # number of ReadCleanReq MSHR hits
system.l2.ReadCleanReq_mshr_hits::total             1                       # number of ReadCleanReq MSHR hits
system.l2.ReadCleanReq_mshr_misses::.cpu.inst          496                       # number of ReadCleanReq MSHR misses
system.l2.ReadCleanReq_mshr_misses::total          496                       # number of ReadCleanReq MSHR misses
system.l2.ReadCleanReq_mshr_miss_latency::.cpu.inst     32551500                       # number of ReadCleanReq MSHR miss cycles
system.l2.ReadCleanReq_mshr_miss_latency::total     32551500                       # number of ReadCleanReq MSHR miss cycles
system.l2.ReadCleanReq_mshr_miss_rate::.cpu.inst     0.726208                       # mshr miss rate for ReadCleanReq accesses
system.l2.ReadCleanReq_mshr_miss_rate::total     0.726208                       # mshr miss rate for ReadCleanReq accesses
system.l2.ReadCleanReq_avg_mshr_miss_latency::.cpu.inst 65628.024194                       # average ReadCleanReq mshr miss latency
system.l2.ReadCleanReq_avg_mshr_miss_latency::total 65628.024194                       # average ReadCleanReq mshr miss latency
system.l2.ReadSharedReq_hits::.cpu.data            13                       # number of ReadSharedReq hits
system.l2.ReadSharedReq_hits::total                13                       # number of ReadSharedReq hits
system.l2.ReadSharedReq_misses::.cpu.data          115                       # number of ReadSharedReq misses
system.l2.ReadSharedReq_misses::total             115                       # number of ReadSharedReq misses
system.l2.ReadSharedReq_miss_latency::.cpu.data      9038000                       # number of ReadSharedReq miss cycles
system.l2.ReadSharedReq_miss_latency::total      9038000                       # number of ReadSharedReq miss cycles
system.l2.ReadSharedReq_accesses::.cpu.data          128                       # number of ReadSharedReq accesses(hits+misses)
system.l2.ReadSharedReq_accesses::total           128                       # number of ReadSharedReq accesses(hits+misses)
system.l2.ReadSharedReq_miss_rate::.cpu.data     0.898438                       # miss rate for ReadSharedReq accesses
system.l2.ReadSharedReq_miss_rate::total     0.898438                       # miss rate for ReadSharedReq accesses
system.l2.ReadSharedReq_avg_miss_latency::.cpu.data 78591.304348                       # average ReadSharedReq miss latency
system.l2.ReadSharedReq_avg_miss_latency::total 78591.304348                       # average ReadSharedReq miss latency
system.l2.ReadSharedReq_mshr_hits::.cpu.data            3                       # number of ReadSharedReq MSHR hits
system.l2.ReadSharedReq_mshr_hits::total            3                       # number of ReadSharedReq MSHR hits
system.l2.ReadSharedReq_mshr_misses::.cpu.data          112                       # number of ReadSharedReq MSHR misses
system.l2.ReadSharedReq_mshr_misses::total          112                       # number of ReadSharedReq MSHR misses
system.l2.ReadSharedReq_mshr_miss_latency::.cpu.data      7716500                       # number of ReadSharedReq MSHR miss cycles
system.l2.ReadSharedReq_mshr_miss_latency::total      7716500                       # number of ReadSharedReq MSHR miss cycles
system.l2.ReadSharedReq_mshr_miss_rate::.cpu.data     0.875000                       # mshr miss rate for ReadSharedReq accesses
system.l2.ReadSharedReq_mshr_miss_rate::total     0.875000                       # mshr miss rate for ReadSharedReq accesses
system.l2.ReadSharedReq_avg_mshr_miss_latency::.cpu.data 68897.321429                       # average ReadSharedReq mshr miss latency
system.l2.ReadSharedReq_avg_mshr_miss_latency::total 68897.321429                       # average ReadSharedReq mshr miss latency
system.l2.power_state.pwrStateResidencyTicks::UNDEFINED 175150617000                       # Cumulative time (in ticks) in various power states
system.l2.tags.tagsinuse                 32429.097400                       # Cycle average of tags in use
system.l2.tags.total_refs                     2975830                       # Total number of references to valid blocks.
system.l2.tags.sampled_refs                   1488111                       # Sample count of references to valid blocks.
system.l2.tags.avg_refs                      1.999737                       # Average number of references to valid blocks.
system.l2.tags.warmup_cycle                     77000                       # Cycle when the warmup percentage was hit.
system.l2.tags.occ_blocks::.cpu.inst         9.790175                       # Average occupied blocks per requestor
system.l2.tags.occ_blocks::.cpu.data     32419.307226                       # Average occupied blocks per requestor
system.l2.tags.occ_percent::.cpu.inst        0.000299                       # Average percentage of cache occupancy
system.l2.tags.occ_percent::.cpu.data        0.989359                       # Average percentage of cache occupancy
system.l2.tags.occ_percent::total            0.989658                       # Average percentage of cache occupancy
system.l2.tags.occ_task_id_blocks::1024         32768                       # Occupied blocks per task id
system.l2.tags.age_task_id_blocks_1024::0           86                       # Occupied blocks per task id
system.l2.tags.age_task_id_blocks_1024::1          765                       # Occupied blocks per task id
system.l2.tags.age_task_id_blocks_1024::2         7636                       # Occupied blocks per task id
system.l2.tags.age_task_id_blocks_1024::3        24281                       # Occupied blocks per task id
system.l2.tags.occ_task_id_percent::1024            1                       # Percentage of cache occupancy per task id
system.l2.tags.tag_accesses                  25294783                       # Number of tag accesses
system.l2.tags.data_accesses                 25294783                       # Number of data accesses
system.l2.tags.power_state.pwrStateResidencyTicks::UNDEFINED 175150617000                       # Cumulative time (in ticks) in various power states
system.mem_ctrls.avgPriority_.writebacks::samples   1454751.00                       # Average QoS priority value for accepted requests
system.mem_ctrls.avgPriority_.cpu.inst::samples       496.00                       # Average QoS priority value for accepted requests
system.mem_ctrls.avgPriority_.cpu.data::samples   1487615.00                       # Average QoS priority value for accepted requests
system.mem_ctrls.priorityMinLatency      0.000000018750                       # per QoS priority minimum request to response latency (s)
system.mem_ctrls.priorityMaxLatency      0.000075614500                       # per QoS priority maximum request to response latency (s)
system.mem_ctrls.numReadWriteTurnArounds        90920                       # Number of turnarounds from READ to WRITE
system.mem_ctrls.numWriteReadTurnArounds        90920                       # Number of turnarounds from WRITE to READ
system.mem_ctrls.numStayReadState             4384681                       # Number of times bus staying in READ state
system.mem_ctrls.numStayWriteState            1364336                       # Number of times bus staying in WRITE state
system.mem_ctrls.readReqs                     1488111                       # Number of read requests accepted
system.mem_ctrls.writeReqs                    1454751                       # Number of write requests accepted
system.mem_ctrls.readBursts                   1488111                       # Number of controller read bursts, including those serviced by the write queue
system.mem_ctrls.writeBursts                  1454751                       # Number of controller write bursts, including those merged in the write queue
system.mem_ctrls.servicedByWrQ                      0                       # Number of controller read bursts serviced by the write queue
system.mem_ctrls.mergedWrBursts                     0                       # Number of controller write bursts merged with an existing one
system.mem_ctrls.neitherReadNorWriteReqs            0                       # Number of requests that are neither read nor write
system.mem_ctrls.avgRdQLen                       1.00                       # Average read queue length when enqueuing
system.mem_ctrls.avgWrQLen                      25.36                       # Average write queue length when enqueuing
system.mem_ctrls.numRdRetry                         0                       # Number of times read queue was full causing retry
system.mem_ctrls.numWrRetry                         0                       # Number of times write queue was full causing retry
system.mem_ctrls.readPktSize::0                     0                       # Read request sizes (log2)
system.mem_ctrls.readPktSize::1                     0                       # Read request sizes (log2)
system.mem_ctrls.readPktSize::2                     0                       # Read request sizes (log2)
system.mem_ctrls.readPktSize::3                     0                       # Read request sizes (log2)
system.mem_ctrls.readPktSize::4                     0                       # Read request sizes (log2)
system.mem_ctrls.readPktSize::5                     0                       # Read request sizes (log2)
system.mem_ctrls.readPktSize::6               1488111                       # Read request sizes (log2)
system.mem_ctrls.writePktSize::0                    0                       # Write request sizes (log2)
system.mem_ctrls.writePktSize::1                    0                       # Write request sizes (log2)
system.mem_ctrls.writePktSize::2                    0                       # Write request sizes (log2)
system.mem_ctrls.writePktSize::3                    0                       # Write request sizes (log2)
system.mem_ctrls.writePktSize::4                    0                       # Write request sizes (log2)
system.mem_ctrls.writePktSize::5                    0                       # Write request sizes (log2)
system.mem_ctrls.writePktSize::6              1454751                       # Write request sizes (log2)
system.mem_ctrls.rdQLenPdf::0                 1488018                       # What read queue length does an incoming req see
system.mem_ctrls.rdQLenPdf::1                      86                       # What read queue length does an incoming req see
system.mem_ctrls.rdQLenPdf::2                       6                       # What read queue length does an incoming req see
system.mem_ctrls.rdQLenPdf::3                       1                       # What read queue length does an incoming req see
system.mem_ctrls.rdQLenPdf::4                       0                       # What read queue length does an incoming req see
system.mem_ctrls.rdQLenPdf::5                       0                       # What read queue length does an incoming req see
system.mem_ctrls.rdQLenPdf::6                       0                       # What read queue length does an incoming req see
system.mem_ctrls.rdQLenPdf::7                       0                       # What read queue length does an incoming req see
system.mem_ctrls.rdQLenPdf::8                       0                       # What read queue length does an incoming req see
system.mem_ctrls.rdQLenPdf::9                       0                       # What read queue length does an incoming req see
system.mem_ctrls.rdQLenPdf::10                      0                       # What read queue length does an incoming req see
system.mem_ctrls.rdQLenPdf::11                      0                       # What read queue length does an incoming req see
system.mem_ctrls.rdQLenPdf::12                      0                       # What read queue length does an incoming req see
system.mem_ctrls.rdQLenPdf::13                      0                       # What read queue length does an incoming req see
[...]
system.mem_ctrls.dram.bw_write::.writebacks    531565721                       # Write bandwidth from this memory (bytes/s)
system.mem_ctrls.dram.bw_write::total       531565721                       # Write bandwidth from this memory (bytes/s)
system.mem_ctrls.dram.bw_total::.writebacks    531565721                       # Total bandwidth to/from this memory (bytes/s)
system.mem_ctrls.dram.bw_total::.cpu.inst       181238                       # Total bandwidth to/from this memory (bytes/s)
system.mem_ctrls.dram.bw_total::.cpu.data    543574220                       # Total bandwidth to/from this memory (bytes/s)
system.mem_ctrls.dram.bw_total::total      1075321179                       # Total bandwidth to/from this memory (bytes/s)
system.mem_ctrls.dram.readBursts              1488111                       # Number of DRAM read bursts
system.mem_ctrls.dram.writeBursts             1454720                       # Number of DRAM write bursts
system.mem_ctrls.dram.perBankRdBursts::0        93030                       # Per bank write bursts
system.mem_ctrls.dram.perBankRdBursts::1        92977                       # Per bank write bursts
system.mem_ctrls.dram.perBankRdBursts::2        93001                       # Per bank write bursts
system.mem_ctrls.dram.perBankRdBursts::3        92952                       # Per bank write bursts
system.mem_ctrls.dram.perBankRdBursts::4        92981                       # Per bank write bursts
system.mem_ctrls.dram.perBankRdBursts::5        93010                       # Per bank write bursts
system.mem_ctrls.dram.perBankRdBursts::6        93062                       # Per bank write bursts
system.mem_ctrls.dram.perBankRdBursts::7        93077                       # Per bank write bursts
system.mem_ctrls.dram.perBankRdBursts::8        93154                       # Per bank write bursts
system.mem_ctrls.dram.perBankRdBursts::9        93077                       # Per bank write bursts
system.mem_ctrls.dram.perBankRdBursts::10        92960                       # Per bank write bursts
system.mem_ctrls.dram.perBankRdBursts::11        92950                       # Per bank write bursts
system.mem_ctrls.dram.perBankRdBursts::12        92996                       # Per bank write bursts
system.mem_ctrls.dram.perBankRdBursts::13        92953                       # Per bank write bursts
system.mem_ctrls.dram.perBankRdBursts::14        92960                       # Per bank write bursts
system.mem_ctrls.dram.perBankRdBursts::15        92971                       # Per bank write bursts
system.mem_ctrls.dram.perBankWrBursts::0        90883                       # Per bank write bursts
system.mem_ctrls.dram.perBankWrBursts::1        90920                       # Per bank write bursts
system.mem_ctrls.dram.perBankWrBursts::2        90905                       # Per bank write bursts
system.mem_ctrls.dram.perBankWrBursts::3        90895                       # Per bank write bursts
system.mem_ctrls.dram.perBankWrBursts::4        90886                       # Per bank write bursts
system.mem_ctrls.dram.perBankWrBursts::5        90945                       # Per bank write bursts
system.mem_ctrls.dram.perBankWrBursts::6        91008                       # Per bank write bursts
system.mem_ctrls.dram.perBankWrBursts::7        91008                       # Per bank write bursts
system.mem_ctrls.dram.perBankWrBursts::8        91008                       # Per bank write bursts
system.mem_ctrls.dram.perBankWrBursts::9        90982                       # Per bank write bursts
system.mem_ctrls.dram.perBankWrBursts::10        90880                       # Per bank write bursts
system.mem_ctrls.dram.perBankWrBursts::11        90880                       # Per bank write bursts
system.mem_ctrls.dram.perBankWrBursts::12        90880                       # Per bank write bursts
system.mem_ctrls.dram.perBankWrBursts::13        90880                       # Per bank write bursts
system.mem_ctrls.dram.perBankWrBursts::14        90880                       # Per bank write bursts
system.mem_ctrls.dram.perBankWrBursts::15        90880                       # Per bank write bursts
system.mem_ctrls.dram.totQLat             15235476750                       # Total ticks spent queuing
system.mem_ctrls.dram.totBusLat            7440555000                       # Total ticks spent in databus transfers
system.mem_ctrls.dram.totMemAccLat        43137558000                       # Total ticks spent from burst creation until serviced by the DRAM
system.mem_ctrls.dram.avgQLat                10238.13                       # Average queueing delay per DRAM burst
system.mem_ctrls.dram.avgBusLat               5000.00                       # Average bus latency per DRAM burst
system.mem_ctrls.dram.avgMemAccLat           28988.13                       # Average memory access latency per DRAM burst
system.mem_ctrls.dram.readRowHits             1363530                       # Number of row buffer hits during reads
system.mem_ctrls.dram.writeRowHits            1352253                       # Number of row buffer hits during writes
system.mem_ctrls.dram.readRowHitRate            91.63                       # Row buffer hit rate for reads
system.mem_ctrls.dram.writeRowHitRate           92.96                       # Row buffer hit rate for writes
system.mem_ctrls.dram.bytesPerActivate::samples       227046                       # Bytes accessed per row activation
system.mem_ctrls.dram.bytesPerActivate::mean   829.524801                       # Bytes accessed per row activation
system.mem_ctrls.dram.bytesPerActivate::gmean   742.900746                       # Bytes accessed per row activation
system.mem_ctrls.dram.bytesPerActivate::stdev   286.569437                       # Bytes accessed per row activation
system.mem_ctrls.dram.bytesPerActivate::0-127         5009      2.21%      2.21% # Bytes accessed per row activation
system.mem_ctrls.dram.bytesPerActivate::128-255         5866      2.58%      4.79% # Bytes accessed per row activation
system.mem_ctrls.dram.bytesPerActivate::256-383         7097      3.13%      7.92% # Bytes accessed per row activation
system.mem_ctrls.dram.bytesPerActivate::384-511        24572     10.82%     18.74% # Bytes accessed per row activation
system.mem_ctrls.dram.bytesPerActivate::512-639        15697      6.91%     25.65% # Bytes accessed per row activation
system.mem_ctrls.dram.bytesPerActivate::640-767        15652      6.89%     32.55% # Bytes accessed per row activation
system.mem_ctrls.dram.bytesPerActivate::768-895         5569      2.45%     35.00% # Bytes accessed per row activation
system.mem_ctrls.dram.bytesPerActivate::896-1023         4501      1.98%     36.98% # Bytes accessed per row activation
system.mem_ctrls.dram.bytesPerActivate::1024-1151       143083     63.02%    100.00% # Bytes accessed per row activation
system.mem_ctrls.dram.bytesPerActivate::total       227046                       # Bytes accessed per row activation
system.mem_ctrls.dram.bytesRead              95239104                       # Total number of bytes read from DRAM
system.mem_ctrls.dram.bytesWritten           93102080                       # Total number of bytes written to DRAM
system.mem_ctrls.dram.avgRdBW              543.755458                       # Average DRAM read bandwidth in MiBytes/s
system.mem_ctrls.dram.avgWrBW              531.554394                       # Average DRAM write bandwidth in MiBytes/s
system.mem_ctrls.dram.peakBW                 12800.00                       # Theoretical peak bandwidth in MiByte/s
system.mem_ctrls.dram.busUtil                    8.40                       # Data bus utilization in percentage
system.mem_ctrls.dram.busUtilRead                4.25                       # Data bus utilization in percentage for reads
system.mem_ctrls.dram.busUtilWrite               4.15                       # Data bus utilization in percentage for writes
system.mem_ctrls.dram.pageHitRate               92.28                       # Row buffer hit rate, read and write combined
system.mem_ctrls.dram.power_state.pwrStateResidencyTicks::UNDEFINED 175150617000                       # Cumulative time (in ticks) in various power states
system.mem_ctrls.dram.rank0.actEnergy       810775560                       # Energy for activate commands per rank (pJ)
system.mem_ctrls.dram.rank0.preEnergy       430937430                       # Energy for precharge commands per rank (pJ)
system.mem_ctrls.dram.rank0.readEnergy     5312802600                       # Energy for read commands per rank (pJ)
system.mem_ctrls.dram.rank0.writeEnergy    3797289000                       # Energy for write commands per rank (pJ)
system.mem_ctrls.dram.rank0.refreshEnergy 13825712160.000002                       # Energy for refresh commands per rank (pJ)
system.mem_ctrls.dram.rank0.actBackEnergy  42147335580                       # Energy for active background per rank (pJ)
system.mem_ctrls.dram.rank0.preBackEnergy  31765344000                       # Energy for precharge background per rank (pJ)
system.mem_ctrls.dram.rank0.actPowerDownEnergy            0                       # Energy for active power-down per rank (pJ)
system.mem_ctrls.dram.rank0.prePowerDownEnergy            0                       # Energy for precharge power-down per rank (pJ)
system.mem_ctrls.dram.rank0.selfRefreshEnergy            0                       # Energy for self refresh per rank (pJ)
system.mem_ctrls.dram.rank0.totalEnergy   98090196330                       # Total energy per rank (pJ)
system.mem_ctrls.dram.rank0.averagePower   560.033404                       # Core power per rank (mW)
system.mem_ctrls.dram.rank0.totalIdleTime            0                       # Total Idle time Per DRAM Rank
system.mem_ctrls.dram.rank0.pwrStateTime::IDLE  81383740500                       # Time in different power states
system.mem_ctrls.dram.rank0.pwrStateTime::REF   5848440000                       # Time in different power states
system.mem_ctrls.dram.rank0.pwrStateTime::SREF            0                       # Time in different power states
system.mem_ctrls.dram.rank0.pwrStateTime::PRE_PDN            0                       # Time in different power states
system.mem_ctrls.dram.rank0.pwrStateTime::ACT  87918436500                       # Time in different power states
system.mem_ctrls.dram.rank0.pwrStateTime::ACT_PDN            0                       # Time in different power states
system.mem_ctrls.dram.rank1.actEnergy       810347160                       # Energy for activate commands per rank (pJ)
system.mem_ctrls.dram.rank1.preEnergy       430702140                       # Energy for precharge commands per rank (pJ)
system.mem_ctrls.dram.rank1.readEnergy     5312309940                       # Energy for read commands per rank (pJ)
system.mem_ctrls.dram.rank1.writeEnergy    3796349400                       # Energy for write commands per rank (pJ)
system.mem_ctrls.dram.rank1.refreshEnergy 13825712160.000002                       # Energy for refresh commands per rank (pJ)
system.mem_ctrls.dram.rank1.actBackEnergy  41093320650                       # Energy for active background per rank (pJ)
system.mem_ctrls.dram.rank1.preBackEnergy  32652935520                       # Energy for precharge background per rank (pJ)
system.mem_ctrls.dram.rank1.actPowerDownEnergy            0                       # Energy for active power-down per rank (pJ)
system.mem_ctrls.dram.rank1.prePowerDownEnergy            0                       # Energy for precharge power-down per rank (pJ)
system.mem_ctrls.dram.rank1.selfRefreshEnergy            0                       # Energy for self refresh per rank (pJ)
system.mem_ctrls.dram.rank1.totalEnergy   97921676970                       # Total energy per rank (pJ)
system.mem_ctrls.dram.rank1.averagePower   559.071265                       # Core power per rank (mW)
system.mem_ctrls.dram.rank1.totalIdleTime            0                       # Total Idle time Per DRAM Rank
system.mem_ctrls.dram.rank1.pwrStateTime::IDLE  83763889250                       # Time in different power states
system.mem_ctrls.dram.rank1.pwrStateTime::REF   5848440000                       # Time in different power states
system.mem_ctrls.dram.rank1.pwrStateTime::SREF            0                       # Time in different power states
system.mem_ctrls.dram.rank1.pwrStateTime::PRE_PDN            0                       # Time in different power states
system.mem_ctrls.dram.rank1.pwrStateTime::ACT  85538287750                       # Time in different power states
system.mem_ctrls.dram.rank1.pwrStateTime::ACT_PDN            0                       # Time in different power states
system.mem_ctrls.power_state.pwrStateResidencyTicks::UNDEFINED 175150617000                       # Cumulative time (in ticks) in various power states
system.membus.trans_dist::ReadResp                608                       # Transaction distribution
system.membus.trans_dist::WritebackDirty      1454751                       # Transaction distribution
system.membus.trans_dist::CleanEvict              347                       # Transaction distribution
system.membus.trans_dist::ReadExReq           1487503                       # Transaction distribution
system.membus.trans_dist::ReadExResp          1487503                       # Transaction distribution
system.membus.trans_dist::ReadSharedReq           608                       # Transaction distribution
system.membus.pkt_count_system.l2.mem_side_port::system.mem_ctrls.port      4431320                       # Packet count per connected requestor and responder (bytes)
system.membus.pkt_count::total                4431320                       # Packet count per connected requestor and responder (bytes)
system.membus.pkt_size_system.l2.mem_side_port::system.mem_ctrls.port    188343168                       # Cumulative packet size per connected requestor and responder (bytes)
system.membus.pkt_size::total               188343168                       # Cumulative packet size per connected requestor and responder (bytes)
system.membus.snoops                                0                       # Total snoops (count)
system.membus.snoopTraffic                          0                       # Total snoop traffic (bytes)
system.membus.snoop_fanout::samples           1488111                       # Request fanout histogram
system.membus.snoop_fanout::mean                    0                       # Request fanout histogram
system.membus.snoop_fanout::stdev                   0                       # Request fanout histogram
system.membus.snoop_fanout::underflows              0      0.00%      0.00% # Request fanout histogram
system.membus.snoop_fanout::0                 1488111    100.00%    100.00% # Request fanout histogram
system.membus.snoop_fanout::1                       0      0.00%    100.00% # Request fanout histogram
system.membus.snoop_fanout::overflows               0      0.00%    100.00% # Request fanout histogram
system.membus.snoop_fanout::min_value               0                       # Request fanout histogram
system.membus.snoop_fanout::max_value               0                       # Request fanout histogram
system.membus.snoop_fanout::total             1488111                       # Request fanout histogram
system.membus.power_state.pwrStateResidencyTicks::UNDEFINED 175150617000                       # Cumulative time (in ticks) in various power states
system.membus.reqLayer0.occupancy          9352632000                       # Layer occupancy (ticks)
system.membus.reqLayer0.utilization               5.3                       # Layer utilization (%)
system.membus.respLayer1.occupancy         7842000000                       # Layer occupancy (ticks)
system.membus.respLayer1.utilization              4.5                       # Layer utilization (%)
system.tol2bus.trans_dist::ReadResp               811                       # Transaction distribution
system.tol2bus.trans_dist::WritebackDirty      2941760                       # Transaction distribution
system.tol2bus.trans_dist::WritebackClean          439                       # Transaction distribution
system.tol2bus.trans_dist::CleanEvict             702                       # Transaction distribution
system.tol2bus.trans_dist::ReadExReq          1487503                       # Transaction distribution
system.tol2bus.trans_dist::ReadExResp         1487503                       # Transaction distribution
system.tol2bus.trans_dist::ReadCleanReq           683                       # Transaction distribution
system.tol2bus.trans_dist::ReadSharedReq          128                       # Transaction distribution
system.tol2bus.pkt_count_system.cpu.icache.mem_side_port::system.l2.cpu_side_port         1805                       # Packet count per connected requestor and responder (bytes)
system.tol2bus.pkt_count_system.cpu.dcache.mem_side_port::system.l2.cpu_side_port      4462381                       # Packet count per connected requestor and responder (bytes)
system.tol2bus.pkt_count::total               4464186                       # Packet count per connected requestor and responder (bytes)
system.tol2bus.pkt_size_system.cpu.icache.mem_side_port::system.l2.cpu_side_port        71808                       # Cumulative packet size per connected requestor and responder (bytes)
system.tol2bus.pkt_size_system.cpu.dcache.mem_side_port::system.l2.cpu_side_port    190376960                       # Cumulative packet size per connected requestor and responder (bytes)
system.tol2bus.pkt_size::total              190448768                       # Cumulative packet size per connected requestor and responder (bytes)
system.tol2bus.snoops                         1455343                       # Total snoops (count)
system.tol2bus.snoopTraffic                  93104064                       # Total snoop traffic (bytes)
system.tol2bus.snoop_fanout::samples          2943657                       # Request fanout histogram
system.tol2bus.snoop_fanout::mean            0.000097                       # Request fanout histogram
system.tol2bus.snoop_fanout::stdev           0.009874                       # Request fanout histogram
system.tol2bus.snoop_fanout::underflows             0      0.00%      0.00% # Request fanout histogram
system.tol2bus.snoop_fanout::0                2943373     99.99%     99.99% # Request fanout histogram
system.tol2bus.snoop_fanout::1                    283      0.01%    100.00% # Request fanout histogram
system.tol2bus.snoop_fanout::2                      1      0.00%    100.00% # Request fanout histogram
system.tol2bus.snoop_fanout::overflows              0      0.00%    100.00% # Request fanout histogram
system.tol2bus.snoop_fanout::min_value              0                       # Request fanout histogram
system.tol2bus.snoop_fanout::max_value              2                       # Request fanout histogram
system.tol2bus.snoop_fanout::total            2943657                       # Request fanout histogram
system.tol2bus.power_state.pwrStateResidencyTicks::UNDEFINED 175150617000                       # Cumulative time (in ticks) in various power states
system.tol2bus.reqLayer0.occupancy         2975384000                       # Layer occupancy (ticks)
system.tol2bus.reqLayer0.utilization              1.7                       # Layer utilization (%)
system.tol2bus.respLayer0.occupancy           1024999                       # Layer occupancy (ticks)
system.tol2bus.respLayer0.utilization             0.0                       # Layer utilization (%)
system.tol2bus.respLayer1.occupancy        2231447997                       # Layer occupancy (ticks)
system.tol2bus.respLayer1.utilization             1.3                       # Layer utilization (%)
system.voltage_domain.voltage                       1                       # Voltage in Volts

---------- End Simulation Statistics   ----------
