
---------- Begin Simulation Statistics ----------
final_tick                                67090855500                       # Number of ticks from beginning of simulation (restored from checkpoints and never reset)
host_inst_rate                                 377966                       # Simulator instruction rate (inst/s)
host_mem_usage                                 668508                       # Number of bytes of host memory used
host_op_rate                                   413613                       # Simulator op (including micro ops) rate (op/s)
host_seconds                                   264.57                       # Real time elapsed on the host
host_tick_rate                              253580652                       # Simulator tick rate (ticks/s)
sim_freq                                 1000000000000                       # Frequency of simulated ticks
sim_insts                                   100000001                       # Number of instructions simulated
sim_ops                                     109431274                       # Number of ops (including micro ops) simulated
sim_seconds                                  0.067091                       # Number of seconds simulated
sim_ticks                                 67090855500                       # Number of ticks simulated
system.cpu.committedInsts                   100000001                       # Number of instructions committed
system.cpu.committedOps                     109431274                       # Number of ops (including micro ops) committed
system.cpu.cpi                               1.341817                       # CPI: cycles per instruction
system.cpu.discardedOps                        376790                       # Number of ops (including micro ops) which were discarded before commit
system.cpu.idleCycles                        15880992                       # Total number of cycles that the object has spent stopped
system.cpu.ipc                               0.745258                       # IPC: instructions per cycle
system.cpu.numCycles                        134181711                       # number of cpu cycles simulated
system.cpu.numFetchSuspends                         0                       # Number of times Execute suspended instruction fetching
system.cpu.numWorkItemsCompleted                    0                       # number of work items this cpu completed
system.cpu.numWorkItemsStarted                      0                       # number of work items this cpu started
system.cpu.op_class_0::No_OpClass                   0      0.00%      0.00% # Class of committed instruction
system.cpu.op_class_0::IntAlu                72955000     66.67%     66.67% # Class of committed instruction
system.cpu.op_class_0::IntMult                 568364      0.52%     67.19% # Class of committed instruction
system.cpu.op_class_0::IntDiv                       0      0.00%     67.19% # Class of committed instruction
system.cpu.op_class_0::FloatAdd                     0      0.00%     67.19% # Class of committed instruction
system.cpu.op_class_0::FloatCmp                     0      0.00%     67.19% # Class of committed instruction
system.cpu.op_class_0::FloatCvt                     0      0.00%     67.19% # Class of committed instruction
system.cpu.op_class_0::FloatMult                    0      0.00%     67.19% # Class of committed instruction
system.cpu.op_class_0::FloatMultAcc                 0      0.00%     67.19% # Class of committed instruction
system.cpu.op_class_0::FloatDiv                     0      0.00%     67.19% # Class of committed instruction
system.cpu.op_class_0::FloatMisc                    0      0.00%     67.19% # Class of committed instruction
system.cpu.op_class_0::FloatSqrt                    0      0.00%     67.19% # Class of committed instruction
system.cpu.op_class_0::SimdAdd                 241336      0.22%     67.41% # Class of committed instruction
system.cpu.op_class_0::SimdAddAcc                   0      0.00%     67.41% # Class of committed instruction
system.cpu.op_class_0::SimdAlu                 154628      0.14%     67.55% # Class of committed instruction
system.cpu.op_class_0::SimdCmp                 120668      0.11%     67.66% # Class of committed instruction
system.cpu.op_class_0::SimdCvt                      0      0.00%     67.66% # Class of committed instruction
system.cpu.op_class_0::SimdMisc                 44543      0.04%     67.70% # Class of committed instruction
system.cpu.op_class_0::SimdMult                     0      0.00%     67.70% # Class of committed instruction
system.cpu.op_class_0::SimdMultAcc                  0      0.00%     67.70% # Class of committed instruction
system.cpu.op_class_0::SimdShift                    0      0.00%     67.70% # Class of committed instruction
system.cpu.op_class_0::SimdShiftAcc                 0      0.00%     67.70% # Class of committed instruction
system.cpu.op_class_0::SimdDiv                      0      0.00%     67.70% # Class of committed instruction
system.cpu.op_class_0::SimdSqrt                     0      0.00%     67.70% # Class of committed instruction
system.cpu.op_class_0::SimdFloatAdd                 0      0.00%     67.70% # Class of committed instruction
system.cpu.op_class_0::SimdFloatAlu                 0      0.00%     67.70% # Class of committed instruction
system.cpu.op_class_0::SimdFloatCmp                 0      0.00%     67.70% # Class of committed instruction
system.cpu.op_class_0::SimdFloatCvt                 0      0.00%     67.70% # Class of committed instruction
system.cpu.op_class_0::SimdFloatDiv                 0      0.00%     67.70% # Class of committed instruction
system.cpu.op_class_0::SimdFloatMisc           166417      0.15%     67.85% # Class of committed instruction
system.cpu.op_class_0::SimdFloatMult                0      0.00%     67.85% # Class of committed instruction
system.cpu.op_class_0::SimdFloatMultAcc             0      0.00%     67.85% # Class of committed instruction
system.cpu.op_class_0::SimdFloatSqrt                0      0.00%     67.85% # Class of committed instruction
system.cpu.op_class_0::SimdReduceAdd                0      0.00%     67.85% # Class of committed instruction
system.cpu.op_class_0::SimdReduceAlu                0      0.00%     67.85% # Class of committed instruction
system.cpu.op_class_0::SimdReduceCmp                0      0.00%     67.85% # Class of committed instruction
system.cpu.op_class_0::SimdFloatReduceAdd            0      0.00%     67.85% # Class of committed instruction
system.cpu.op_class_0::SimdFloatReduceCmp            0      0.00%     67.85% # Class of committed instruction
system.cpu.op_class_0::SimdAes                      0      0.00%     67.85% # Class of committed instruction
system.cpu.op_class_0::SimdAesMix                   0      0.00%     67.85% # Class of committed instruction
system.cpu.op_class_0::SimdSha1Hash                 0      0.00%     67.85% # Class of committed instruction
system.cpu.op_class_0::SimdSha1Hash2                0      0.00%     67.85% # Class of committed instruction
system.cpu.op_class_0::SimdSha256Hash               0      0.00%     67.85% # Class of committed instruction
system.cpu.op_class_0::SimdSha256Hash2              0      0.00%     67.85% # Class of committed instruction
system.cpu.op_class_0::SimdShaSigma2                0      0.00%     67.85% # Class of committed instruction
system.cpu.op_class_0::SimdShaSigma3                0      0.00%     67.85% # Class of committed instruction
system.cpu.op_class_0::SimdPredAlu                  0      0.00%     67.85% # Class of committed instruction
system.cpu.op_class_0::MemRead               20645994     18.87%     86.72% # Class of committed instruction
system.cpu.op_class_0::MemWrite              14534324     13.28%    100.00% # Class of committed instruction
system.cpu.op_class_0::FloatMemRead                 0      0.00%    100.00% # Class of committed instruction
system.cpu.op_class_0::FloatMemWrite                0      0.00%    100.00% # Class of committed instruction
system.cpu.op_class_0::IprAccess                    0      0.00%    100.00% # Class of committed instruction
system.cpu.op_class_0::InstPrefetch                 0      0.00%    100.00% # Class of committed instruction
system.cpu.op_class_0::total                109431274                       # Class of committed instruction
system.cpu.tickCycles                       118300719                       # Number of cycles that the object actually ticked
system.cpu.workload.numSyscalls                    87                       # Number of system calls
system.membus.snoop_filter.hit_multi_requests            0                       # Number of requests hitting in the snoop filter with multiple (>1) holders of the requested data.
system.membus.snoop_filter.hit_multi_snoops            0                       # Number of snoops hitting in the snoop filter with multiple (>1) holders of the requested data.
system.membus.snoop_filter.hit_single_requests         6795                       # Number of requests hitting in the snoop filter with a single holder of the requested data.
system.membus.snoop_filter.hit_single_snoops            0                       # Number of snoops hitting in the snoop filter with a single holder of the requested data.
system.membus.snoop_filter.tot_requests         46678                       # Total number of requests made to the snoop filter.
system.membus.snoop_filter.tot_snoops               0                       # Total number of snoops made to the snoop filter.
system.tol2bus.snoop_filter.hit_multi_requests         1481                       # Number of requests hitting in the snoop filter with multiple (>1) holders of the requested data.
system.tol2bus.snoop_filter.hit_multi_snoops            0                       # Number of snoops hitting in the snoop filter with multiple (>1) holders of the requested data.
system.tol2bus.snoop_filter.hit_single_requests      1129230                       # Number of requests hitting in the snoop filter with a single holder of the requested data.
system.tol2bus.snoop_filter.hit_single_snoops          321                       # Number of snoops hitting in the snoop filter with a single holder of the requested data.
system.tol2bus.snoop_filter.tot_requests      2259824                       # Total number of requests made to the snoop filter.
system.tol2bus.snoop_filter.tot_snoops            321                       # Total number of snoops made to the snoop filter.
system.clk_domain.clock                          1000                       # Clock period in ticks
system.cpu.branchPred.lookups                20271442                       # Number of BP lookups
system.cpu.branchPred.condPredicted          16208791                       # Number of conditional branches predicted
system.cpu.branchPred.condIncorrect             53340                       # Number of conditional branches incorrect
system.cpu.branchPred.BTBLookups              8737114                       # Number of BTB lookups
system.cpu.branchPred.BTBHits                 8735741                       # Number of BTB hits
system.cpu.branchPred.BTBHitPct             99.984285                       # BTB Hit Percentage
system.cpu.branchPred.RASUsed                 1050563                       # Number of times the RAS was used to get a target.
system.cpu.branchPred.RASIncorrect                312                       # Number of incorrect RAS predictions.
system.cpu.branchPred.indirectLookups          434024                       # Number of indirect predictor lookups.
system.cpu.branchPred.indirectHits             300037                       # Number of indirect target hits.
system.cpu.branchPred.indirectMisses           133987                       # Number of indirect misses.
system.cpu.branchPred.indirectMispredicted         1046                       # Number of mispredicted indirect branches.
system.cpu.dcache.demand_hits::.cpu.data     35587236                       # number of demand (read+write) hits
system.cpu.dcache.demand_hits::total         35587236                       # number of demand (read+write) hits
system.cpu.dcache.overall_hits::.cpu.data     35590528                       # number of overall hits
system.cpu.dcache.overall_hits::total        35590528                       # number of overall hits
system.cpu.dcache.demand_misses::.cpu.data        98862                       # number of demand (read+write) misses
system.cpu.dcache.demand_misses::total          98862                       # number of demand (read+write) misses
system.cpu.dcache.overall_misses::.cpu.data        98931                       # number of overall misses
system.cpu.dcache.overall_misses::total         98931                       # number of overall misses
system.cpu.dcache.demand_miss_latency::.cpu.data   4843325500                       # number of demand (read+write) miss cycles
system.cpu.dcache.demand_miss_latency::total   4843325500                       # number of demand (read+write) miss cycles
system.cpu.dcache.overall_miss_latency::.cpu.data   4843325500                       # number of overall miss cycles
system.cpu.dcache.overall_miss_latency::total   4843325500                       # number of overall miss cycles
system.cpu.dcache.demand_accesses::.cpu.data     35686098                       # number of demand (read+write) accesses
system.cpu.dcache.demand_accesses::total     35686098                       # number of demand (read+write) accesses
system.cpu.dcache.overall_accesses::.cpu.data     35689459                       # number of overall (read+write) accesses
system.cpu.dcache.overall_accesses::total     35689459                       # number of overall (read+write) accesses
system.cpu.dcache.demand_miss_rate::.cpu.data     0.002770                       # miss rate for demand accesses
system.cpu.dcache.demand_miss_rate::total     0.002770                       # miss rate for demand accesses
system.cpu.dcache.overall_miss_rate::.cpu.data     0.002772                       # miss rate for overall accesses
system.cpu.dcache.overall_miss_rate::total     0.002772                       # miss rate for overall accesses
system.cpu.dcache.demand_avg_miss_latency::.cpu.data 48990.769962                       # average overall miss latency
system.cpu.dcache.demand_avg_miss_latency::total 48990.769962                       # average overall miss latency
system.cpu.dcache.overall_avg_miss_latency::.cpu.data 48956.601065                       # average overall miss latency
system.cpu.dcache.overall_avg_miss_latency::total 48956.601065                       # average overall miss latency
system.cpu.dcache.blocked_cycles::no_mshrs            0                       # number of cycles access was blocked
system.cpu.dcache.blocked_cycles::no_targets            0                       # number of cycles access was blocked
system.cpu.dcache.blocked::no_mshrs                 0                       # number of cycles access was blocked
system.cpu.dcache.blocked::no_targets               0                       # number of cycles access was blocked
system.cpu.dcache.avg_blocked_cycles::no_mshrs          nan                       # average number of cycles each access was blocked
system.cpu.dcache.avg_blocked_cycles::no_targets          nan                       # average number of cycles each access was blocked
system.cpu.dcache.writebacks::.writebacks        60312                       # number of writebacks
system.cpu.dcache.writebacks::total             60312                       # number of writebacks
system.cpu.dcache.demand_mshr_hits::.cpu.data        26258                       # number of demand (read+write) MSHR hits
system.cpu.dcache.demand_mshr_hits::total        26258                       # number of demand (read+write) MSHR hits
system.cpu.dcache.overall_mshr_hits::.cpu.data        26258                       # number of overall MSHR hits
system.cpu.dcache.overall_mshr_hits::total        26258                       # number of overall MSHR hits
system.cpu.dcache.demand_mshr_misses::.cpu.data        72604                       # number of demand (read+write) MSHR misses
system.cpu.dcache.demand_mshr_misses::total        72604                       # number of demand (read+write) MSHR misses
system.cpu.dcache.overall_mshr_misses::.cpu.data        72668                       # number of overall MSHR misses
system.cpu.dcache.overall_mshr_misses::total        72668                       # number of overall MSHR misses
system.cpu.dcache.demand_mshr_miss_latency::.cpu.data   3607554500                       # number of demand (read+write) MSHR miss cycles
system.cpu.dcache.demand_mshr_miss_latency::total   3607554500                       # number of demand (read+write) MSHR miss cycles
system.cpu.dcache.overall_mshr_miss_latency::.cpu.data   3609184500                       # number of overall MSHR miss cycles
system.cpu.dcache.overall_mshr_miss_latency::total   3609184500                       # number of overall MSHR miss cycles
system.cpu.dcache.demand_mshr_miss_rate::.cpu.data     0.002035                       # mshr miss rate for demand accesses
system.cpu.dcache.demand_mshr_miss_rate::total     0.002035                       # mshr miss rate for demand accesses
system.cpu.dcache.overall_mshr_miss_rate::.cpu.data     0.002036                       # mshr miss rate for overall accesses
system.cpu.dcache.overall_mshr_miss_rate::total     0.002036                       # mshr miss rate for overall accesses
system.cpu.dcache.demand_avg_mshr_miss_latency::.cpu.data 49688.095697                       # average overall mshr miss latency
system.cpu.dcache.demand_avg_mshr_miss_latency::total 49688.095697                       # average overall mshr miss latency
system.cpu.dcache.overall_avg_mshr_miss_latency::.cpu.data 49666.765289                       # average overall mshr miss latency
system.cpu.dcache.overall_avg_mshr_miss_latency::total 49666.765289                       # average overall mshr miss latency
system.cpu.dcache.replacements                  71659                       # number of replacements
system.cpu.dcache.ReadReq_hits::.cpu.data     21395829                       # number of ReadReq hits
system.cpu.dcache.ReadReq_hits::total        21395829                       # number of ReadReq hits
system.cpu.dcache.ReadReq_misses::.cpu.data        36010                       # number of ReadReq misses
system.cpu.dcache.ReadReq_misses::total         36010                       # number of ReadReq misses
system.cpu.dcache.ReadReq_miss_latency::.cpu.data    537126500                       # number of ReadReq miss cycles
system.cpu.dcache.ReadReq_miss_latency::total    537126500                       # number of ReadReq miss cycles
system.cpu.dcache.ReadReq_accesses::.cpu.data     21431839                       # number of ReadReq accesses(hits+misses)
system.cpu.dcache.ReadReq_accesses::total     21431839                       # number of ReadReq accesses(hits+misses)
system.cpu.dcache.ReadReq_miss_rate::.cpu.data     0.001680                       # miss rate for ReadReq accesses
system.cpu.dcache.ReadReq_miss_rate::total     0.001680                       # miss rate for ReadReq accesses
system.cpu.dcache.ReadReq_avg_miss_latency::.cpu.data 14916.037212                       # average ReadReq miss latency
system.cpu.dcache.ReadReq_avg_miss_latency::total 14916.037212                       # average ReadReq miss latency
system.cpu.dcache.ReadReq_mshr_hits::.cpu.data         6492                       # number of ReadReq MSHR hits
system.cpu.dcache.ReadReq_mshr_hits::total         6492                       # number of ReadReq MSHR hits
system.cpu.dcache.ReadReq_mshr_misses::.cpu.data        29518                       # number of ReadReq MSHR misses
system.cpu.dcache.ReadReq_mshr_misses::total        29518                       # number of ReadReq MSHR misses
system.cpu.dcache.ReadReq_mshr_miss_latency::.cpu.data    407451000                       # number of ReadReq MSHR miss cycles
system.cpu.dcache.ReadReq_mshr_miss_latency::total    407451000                       # number of ReadReq MSHR miss cycles
system.cpu.dcache.ReadReq_mshr_miss_rate::.cpu.data     0.001377                       # mshr miss rate for ReadReq accesses
system.cpu.dcache.ReadReq_mshr_miss_rate::total     0.001377                       # mshr miss rate for ReadReq accesses
system.cpu.dcache.ReadReq_avg_mshr_miss_latency::.cpu.data 13803.475845                       # average ReadReq mshr miss latency
system.cpu.dcache.ReadReq_avg_mshr_miss_latency::total 13803.475845                       # average ReadReq mshr miss latency
system.cpu.dcache.WriteReq_hits::.cpu.data     14191407                       # number of WriteReq hits
system.cpu.dcache.WriteReq_hits::total       14191407                       # number of WriteReq hits
system.cpu.dcache.WriteReq_misses::.cpu.data        62852                       # number of WriteReq misses
system.cpu.dcache.WriteReq_misses::total        62852                       # number of WriteReq misses
system.cpu.dcache.WriteReq_miss_latency::.cpu.data   4306199000                       # number of WriteReq miss cycles
system.cpu.dcache.WriteReq_miss_latency::total   4306199000                       # number of WriteReq miss cycles
system.cpu.dcache.WriteReq_accesses::.cpu.data     14254259                       # number of WriteReq accesses(hits+misses)
system.cpu.dcache.WriteReq_accesses::total     14254259                       # number of WriteReq accesses(hits+misses)
system.cpu.dcache.WriteReq_miss_rate::.cpu.data     0.004409                       # miss rate for WriteReq accesses
system.cpu.dcache.WriteReq_miss_rate::total     0.004409                       # miss rate for WriteReq accesses
system.cpu.dcache.WriteReq_avg_miss_latency::.cpu.data 68513.316999                       # average WriteReq miss latency
system.cpu.dcache.WriteReq_avg_miss_latency::total 68513.316999                       # average WriteReq miss latency
system.cpu.dcache.WriteReq_mshr_hits::.cpu.data        19766                       # number of WriteReq MSHR hits
system.cpu.dcache.WriteReq_mshr_hits::total        19766                       # number of WriteReq MSHR hits
system.cpu.dcache.WriteReq_mshr_misses::.cpu.data        43086                       # number of WriteReq MSHR misses
system.cpu.dcache.WriteReq_mshr_misses::total        43086                       # number of WriteReq MSHR misses
system.cpu.dcache.WriteReq_mshr_miss_latency::.cpu.data   3200103500                       # number of WriteReq MSHR miss cycles
system.cpu.dcache.WriteReq_mshr_miss_latency::total   3200103500                       # number of WriteReq MSHR miss cycles
system.cpu.dcache.WriteReq_mshr_miss_rate::.cpu.data     0.003023                       # mshr miss rate for WriteReq accesses
system.cpu.dcache.WriteReq_mshr_miss_rate::total     0.003023                       # mshr miss rate for WriteReq accesses
system.cpu.dcache.WriteReq_avg_mshr_miss_latency::.cpu.data 74272.466695                       # average WriteReq mshr miss latency
system.cpu.dcache.WriteReq_avg_mshr_miss_latency::total 74272.466695                       # average WriteReq mshr miss latency
system.cpu.dcache.SoftPFReq_hits::.cpu.data         3292                       # number of SoftPFReq hits
system.cpu.dcache.SoftPFReq_hits::total          3292                       # number of SoftPFReq hits
system.cpu.dcache.SoftPFReq_misses::.cpu.data           69                       # number of SoftPFReq misses
system.cpu.dcache.SoftPFReq_misses::total           69                       # number of SoftPFReq misses
system.cpu.dcache.SoftPFReq_accesses::.cpu.data         3361                       # number of SoftPFReq accesses(hits+misses)
system.cpu.dcache.SoftPFReq_accesses::total         3361                       # number of SoftPFReq accesses(hits+misses)
system.cpu.dcache.SoftPFReq_miss_rate::.cpu.data     0.020530                       # miss rate for SoftPFReq accesses
system.cpu.dcache.SoftPFReq_miss_rate::total     0.020530                       # miss rate for SoftPFReq accesses
system.cpu.dcache.SoftPFReq_mshr_misses::.cpu.data           64                       # number of SoftPFReq MSHR misses
system.cpu.dcache.SoftPFReq_mshr_misses::total           64                       # number of SoftPFReq MSHR misses
system.cpu.dcache.SoftPFReq_mshr_miss_latency::.cpu.data      1630000                       # number of SoftPFReq MSHR miss cycles
system.cpu.dcache.SoftPFReq_mshr_miss_latency::total      1630000                       # number of SoftPFReq MSHR miss cycles
system.cpu.dcache.SoftPFReq_mshr_miss_rate::.cpu.data     0.019042                       # mshr miss rate for SoftPFReq accesses
system.cpu.dcache.SoftPFReq_mshr_miss_rate::total     0.019042                       # mshr miss rate for SoftPFReq accesses
system.cpu.dcache.SoftPFReq_avg_mshr_miss_latency::.cpu.data 25468.750000                       # average SoftPFReq mshr miss latency
system.cpu.dcache.SoftPFReq_avg_mshr_miss_latency::total 25468.750000                       # average SoftPFReq mshr miss latency
system.cpu.dcache.LoadLockedReq_hits::.cpu.data        89079                       # number of LoadLockedReq hits
system.cpu.dcache.LoadLockedReq_hits::total        89079                       # number of LoadLockedReq hits
system.cpu.dcache.LoadLockedReq_misses::.cpu.data           15                       # number of LoadLockedReq misses
system.cpu.dcache.LoadLockedReq_misses::total           15                       # number of LoadLockedReq misses
system.cpu.dcache.LoadLockedReq_miss_latency::.cpu.data       420000                       # number of LoadLockedReq miss cycles
system.cpu.dcache.LoadLockedReq_miss_latency::total       420000                       # number of LoadLockedReq miss cycles
system.cpu.dcache.LoadLockedReq_accesses::.cpu.data        89094                       # number of LoadLockedReq accesses(hits+misses)
system.cpu.dcache.LoadLockedReq_accesses::total        89094                       # number of LoadLockedReq accesses(hits+misses)
system.cpu.dcache.LoadLockedReq_miss_rate::.cpu.data     0.000168                       # miss rate for LoadLockedReq accesses
system.cpu.dcache.LoadLockedReq_miss_rate::total     0.000168                       # miss rate for LoadLockedReq accesses
system.cpu.dcache.LoadLockedReq_avg_miss_latency::.cpu.data        28000                       # average LoadLockedReq miss latency
system.cpu.dcache.LoadLockedReq_avg_miss_latency::total        28000                       # average LoadLockedReq miss latency
system.cpu.dcache.LoadLockedReq_mshr_misses::.cpu.data           15                       # number of LoadLockedReq MSHR misses
system.cpu.dcache.LoadLockedReq_mshr_misses::total           15                       # number of LoadLockedReq MSHR misses
system.cpu.dcache.LoadLockedReq_mshr_miss_latency::.cpu.data       405000                       # number of LoadLockedReq MSHR miss cycles
system.cpu.dcache.LoadLockedReq_mshr_miss_latency::total       405000                       # number of LoadLockedReq MSHR miss cycles
system.cpu.dcache.LoadLockedReq_mshr_miss_rate::.cpu.data     0.000168                       # mshr miss rate for LoadLockedReq accesses
system.cpu.dcache.LoadLockedReq_mshr_miss_rate::total     0.000168                       # mshr miss rate for LoadLockedReq accesses
system.cpu.dcache.LoadLockedReq_avg_mshr_miss_latency::.cpu.data        27000                       # average LoadLockedReq mshr miss latency
system.cpu.dcache.LoadLockedReq_avg_mshr_miss_latency::total        27000                       # average LoadLockedReq mshr miss latency
system.cpu.dcache.StoreCondReq_hits::.cpu.data        89080                       # number of StoreCondReq hits
system.cpu.dcache.StoreCondReq_hits::total        89080                       # number of StoreCondReq hits
system.cpu.dcache.StoreCondReq_accesses::.cpu.data        89080                       # number of StoreCondReq accesses(hits+misses)
system.cpu.dcache.StoreCondReq_accesses::total        89080                       # number of StoreCondReq accesses(hits+misses)
system.cpu.dcache.power_state.pwrStateResidencyTicks::UNDEFINED  67090855500                       # Cumulative time (in ticks) in various power states
system.cpu.dcache.tags.tagsinuse          1020.376023                       # Cycle average of tags in use
system.cpu.dcache.tags.total_refs            35841370                       # Total number of references to valid blocks.
system.cpu.dcache.tags.sampled_refs             72683                       # Sample count of references to valid blocks.
system.cpu.dcache.tags.avg_refs            493.119024                       # Average number of references to valid blocks.
system.cpu.dcache.tags.warmup_cycle            176500                       # Cycle when the warmup percentage was hit.
system.cpu.dcache.tags.occ_blocks::.cpu.data  1020.376023                       # Average occupied blocks per requestor
system.cpu.dcache.tags.occ_percent::.cpu.data     0.996461                       # Average percentage of cache occupancy
system.cpu.dcache.tags.occ_percent::total     0.996461                       # Average percentage of cache occupancy
system.cpu.dcache.tags.occ_task_id_blocks::1024         1024                       # Occupied blocks per task id
system.cpu.dcache.tags.age_task_id_blocks_1024::0            5                       # Occupied blocks per task id
system.cpu.dcache.tags.age_task_id_blocks_1024::1           43                       # Occupied blocks per task id
system.cpu.dcache.tags.age_task_id_blocks_1024::2          409                       # Occupied blocks per task id
system.cpu.dcache.tags.age_task_id_blocks_1024::3          567                       # Occupied blocks per task id
system.cpu.dcache.tags.occ_task_id_percent::1024            1                       # Percentage of cache occupancy per task id
system.cpu.dcache.tags.tag_accesses          35940316                       # Number of tag accesses
system.cpu.dcache.tags.data_accesses         35940316                       # Number of data accesses
system.cpu.dcache.tags.power_state.pwrStateResidencyTicks::UNDEFINED  67090855500                       # Cumulative time (in ticks) in various power states
system.cpu.dtb.instHits                             0                       # ITB inst hits
system.cpu.dtb.instMisses                           0                       # ITB inst misses
system.cpu.dtb.readHits                             0                       # DTB read hits
system.cpu.dtb.readMisses                           0                       # DTB read misses
system.cpu.dtb.writeHits                            0                       # DTB write hits
system.cpu.dtb.writeMisses                          0                       # DTB write misses
system.cpu.dtb.inserts                              0                       # Number of times an entry is inserted into the TLB
system.cpu.dtb.flushTlb                             0                       # Number of times complete TLB was flushed
system.cpu.dtb.flushTlbMva                          0                       # Number of times TLB was flushed by MVA
system.cpu.dtb.flushTlbMvaAsid                      0                       # Number of times TLB was flushed by MVA & ASID
system.cpu.dtb.flushTlbAsid                         0                       # Number of times TLB was flushed by ASID
system.cpu.dtb.flushedEntries                       0                       # Number of entries that have been flushed from TLB
system.cpu.dtb.alignFaults                          0                       # Number of TLB faults due to alignment restrictions
system.cpu.dtb.prefetchFaults                       0                       # Number of TLB faults due to prefetch
system.cpu.dtb.domainFaults                         0                       # Number of TLB faults due to domain restrictions
system.cpu.dtb.permsFaults                          0                       # Number of TLB faults due to permissions restrictions
system.cpu.dtb.readAccesses                         0                       # DTB read accesses
system.cpu.dtb.writeAccesses                        0                       # DTB write accesses
system.cpu.dtb.instAccesses                         0                       # ITB inst accesses
system.cpu.dtb.hits                                 0                       # Total TLB (inst and data) hits
system.cpu.dtb.misses                               0                       # Total TLB (inst and data) misses
system.cpu.dtb.accesses                             0                       # Total TLB (inst and data) accesses
system.cpu.dtb.stage2_mmu.stage2_tlb.instHits            0                       # ITB inst hits
system.cpu.dtb.stage2_mmu.stage2_tlb.instMisses            0                       # ITB inst misses
system.cpu.dtb.stage2_mmu.stage2_tlb.readHits            0                       # DTB read hits
system.cpu.dtb.stage2_mmu.stage2_tlb.readMisses            0                       # DTB read misses
system.cpu.dtb.stage2_mmu.stage2_tlb.writeHits            0                       # DTB write hits
system.cpu.dtb.stage2_mmu.stage2_tlb.writeMisses            0                       # DTB write misses
system.cpu.dtb.stage2_mmu.stage2_tlb.inserts            0                       # Number of times an entry is inserted into the TLB
system.cpu.dtb.stage2_mmu.stage2_tlb.flushTlb            0                       # Number of times complete TLB was flushed
system.cpu.dtb.stage2_mmu.stage2_tlb.flushTlbMva            0                       # Number of times TLB was flushed by MVA
system.cpu.dtb.stage2_mmu.stage2_tlb.flushTlbMvaAsid            0                       # Number of times TLB was flushed by MVA & ASID
system.cpu.dtb.stage2_mmu.stage2_tlb.flushTlbAsid            0                       # Number of times TLB was flushed by ASID
system.cpu.dtb.stage2_mmu.stage2_tlb.flushedEntries            0                       # Number of entries that have been flushed from TLB
system.cpu.dtb.stage2_mmu.stage2_tlb.alignFaults            0                       # Number of TLB faults due to alignment restrictions
system.cpu.dtb.stage2_mmu.stage2_tlb.prefetchFaults            0                       # Number of TLB faults due to prefetch
system.cpu.dtb.stage2_mmu.stage2_tlb.domainFaults            0                       # Number of TLB faults due to domain restrictions
system.cpu.dtb.stage2_mmu.stage2_tlb.permsFaults            0                       # Number of TLB faults due to permissions restrictions
system.cpu.dtb.stage2_mmu.stage2_tlb.readAccesses            0                       # DTB read accesses
system.cpu.dtb.stage2_mmu.stage2_tlb.writeAccesses            0                       # DTB write accesses
system.cpu.dtb.stage2_mmu.stage2_tlb.instAccesses            0                       # ITB inst accesses
system.cpu.dtb.stage2_mmu.stage2_tlb.hits            0                       # Total TLB (inst and data) hits
system.cpu.dtb.stage2_mmu.stage2_tlb.misses            0                       # Total TLB (inst and data) misses
system.cpu.dtb.stage2_mmu.stage2_tlb.accesses            0                       # Total TLB (inst and data) accesses
system.cpu.dtb.stage2_mmu.stage2_tlb.walker.walks            0                       # Table walker walks requested
system.cpu.dtb.stage2_mmu.stage2_tlb.walker.requestOrigin_Requested::Data            0                       # Table walker requests started/completed, data/inst
system.cpu.dtb.stage2_mmu.stage2_tlb.walker.requestOrigin_Requested::Inst            0                       # Table walker requests started/completed, data/inst
system.cpu.dtb.stage2_mmu.stage2_tlb.walker.requestOrigin_Requested::total            0                       # Table walker requests started/completed, data/inst
system.cpu.dtb.stage2_mmu.stage2_tlb.walker.requestOrigin_Completed::Data            0                       # Table walker requests started/completed, data/inst
system.cpu.dtb.stage2_mmu.stage2_tlb.walker.requestOrigin_Completed::Inst            0                       # Table walker requests started/completed, data/inst
system.cpu.dtb.stage2_mmu.stage2_tlb.walker.requestOrigin_Completed::total            0                       # Table walker requests started/completed, data/inst
system.cpu.dtb.stage2_mmu.stage2_tlb.walker.requestOrigin::total            0                       # Table walker requests started/completed, data/inst
system.cpu.dtb.stage2_mmu.stage2_tlb.walker.power_state.pwrStateResidencyTicks::UNDEFINED  67090855500                       # Cumulative time (in ticks) in various power states
system.cpu.dtb.walker.walks                         0                       # Table walker walks requested
system.cpu.dtb.walker.requestOrigin_Requested::Data            0                       # Table walker requests started/completed, data/inst
system.cpu.dtb.walker.requestOrigin_Requested::Inst            0                       # Table walker requests started/completed, data/inst
system.cpu.dtb.walker.requestOrigin_Requested::total            0                       # Table walker requests started/completed, data/inst
system.cpu.dtb.walker.requestOrigin_Completed::Data            0                       # Table walker requests started/completed, data/inst
system.cpu.dtb.walker.requestOrigin_Completed::Inst            0                       # Table walker requests started/completed, data/inst
system.cpu.dtb.walker.requestOrigin_Completed::total            0                       # Table walker requests started/completed, data/inst
system.cpu.dtb.walker.requestOrigin::total            0                       # Table walker requests started/completed, data/inst
system.cpu.dtb.walker.power_state.pwrStateResidencyTicks::UNDEFINED  67090855500                       # Cumulative time (in ticks) in various power states
system.cpu.fetch2.intInstructions            48976169                       # Number of integer instructions successfully decoded
system.cpu.fetch2.fpInstructions                    0                       # Number of floating point instructions successfully decoded
system.cpu.fetch2.vecInstructions                   0                       # Number of SIMD instructions successfully decoded
system.cpu.fetch2.loadInstructions           17062122                       # Number of memory load instructions successfully decoded
system.cpu.fetch2.storeInstructions           9719602                       # Number of memory store instructions successfully decoded
system.cpu.fetch2.amoInstructions                   0                       # Number of memory atomic instructions successfully decoded
system.cpu.icache.demand_hits::.cpu.inst     26844596                       # number of demand (read+write) hits
system.cpu.icache.demand_hits::total         26844596                       # number of demand (read+write) hits
system.cpu.icache.overall_hits::.cpu.inst     26844596                       # number of overall hits
system.cpu.icache.overall_hits::total        26844596                       # number of overall hits
system.cpu.icache.demand_misses::.cpu.inst      1057915                       # number of demand (read+write) misses
system.cpu.icache.demand_misses::total        1057915                       # number of demand (read+write) misses
system.cpu.icache.overall_misses::.cpu.inst      1057915                       # number of overall misses
system.cpu.icache.overall_misses::total       1057915                       # number of overall misses
system.cpu.icache.demand_miss_latency::.cpu.inst  13787396500                       # number of demand (read+write) miss cycles
system.cpu.icache.demand_miss_latency::total  13787396500                       # number of demand (read+write) miss cycles
system.cpu.icache.overall_miss_latency::.cpu.inst  13787396500                       # number of overall miss cycles
system.cpu.icache.overall_miss_latency::total  13787396500                       # number of overall miss cycles
system.cpu.icache.demand_accesses::.cpu.inst     27902511                       # number of demand (read+write) accesses
system.cpu.icache.demand_accesses::total     27902511                       # number of demand (read+write) accesses
system.cpu.icache.overall_accesses::.cpu.inst     27902511                       # number of overall (read+write) accesses
system.cpu.icache.overall_accesses::total     27902511                       # number of overall (read+write) accesses
system.cpu.icache.demand_miss_rate::.cpu.inst     0.037915                       # miss rate for demand accesses
system.cpu.icache.demand_miss_rate::total     0.037915                       # miss rate for demand accesses
system.cpu.icache.overall_miss_rate::.cpu.inst     0.037915                       # miss rate for overall accesses
system.cpu.icache.overall_miss_rate::total     0.037915                       # miss rate for overall accesses
system.cpu.icache.demand_avg_miss_latency::.cpu.inst 13032.612734                       # average overall miss latency
system.cpu.icache.demand_avg_miss_latency::total 13032.612734                       # average overall miss latency
system.cpu.icache.overall_avg_miss_latency::.cpu.inst 13032.612734                       # average overall miss latency
system.cpu.icache.overall_avg_miss_latency::total 13032.612734                       # average overall miss latency
system.cpu.icache.blocked_cycles::no_mshrs            0                       # number of cycles access was blocked
system.cpu.icache.blocked_cycles::no_targets            0                       # number of cycles access was blocked
system.cpu.icache.blocked::no_mshrs                 0                       # number of cycles access was blocked
system.cpu.icache.blocked::no_targets               0                       # number of cycles access was blocked
system.cpu.icache.avg_blocked_cycles::no_mshrs          nan                       # average number of cycles each access was blocked
system.cpu.icache.avg_blocked_cycles::no_targets          nan                       # average number of cycles each access was blocked
system.cpu.icache.writebacks::.writebacks      1057567                       # number of writebacks
system.cpu.icache.writebacks::total           1057567                       # number of writebacks
system.cpu.icache.demand_mshr_misses::.cpu.inst      1057915                       # number of demand (read+write) MSHR misses
system.cpu.icache.demand_mshr_misses::total      1057915                       # number of demand (read+write) MSHR misses
system.cpu.icache.overall_mshr_misses::.cpu.inst      1057915                       # number of overall MSHR misses
system.cpu.icache.overall_mshr_misses::total      1057915                       # number of overall MSHR misses
system.cpu.icache.demand_mshr_miss_latency::.cpu.inst  12729481500                       # number of demand (read+write) MSHR miss cycles
system.cpu.icache.demand_mshr_miss_latency::total  12729481500                       # number of demand (read+write) MSHR miss cycles
system.cpu.icache.overall_mshr_miss_latency::.cpu.inst  12729481500                       # number of overall MSHR miss cycles
system.cpu.icache.overall_mshr_miss_latency::total  12729481500                       # number of overall MSHR miss cycles
system.cpu.icache.demand_mshr_miss_rate::.cpu.inst     0.037915                       # mshr miss rate for demand accesses
system.cpu.icache.demand_mshr_miss_rate::total     0.037915                       # mshr miss rate for demand accesses
system.cpu.icache.overall_mshr_miss_rate::.cpu.inst     0.037915                       # mshr miss rate for overall accesses
system.cpu.icache.overall_mshr_miss_rate::total     0.037915                       # mshr miss rate for overall accesses
system.cpu.icache.demand_avg_mshr_miss_latency::.cpu.inst 12032.612734                       # average overall mshr miss latency
system.cpu.icache.demand_avg_mshr_miss_latency::total 12032.612734                       # average overall mshr miss latency
system.cpu.icache.overall_avg_mshr_miss_latency::.cpu.inst 12032.612734                       # average overall mshr miss latency
system.cpu.icache.overall_avg_mshr_miss_latency::total 12032.612734                       # average overall mshr miss latency
system.cpu.icache.replacements                1057567                       # number of replacements
system.cpu.icache.ReadReq_hits::.cpu.inst     26844596                       # number of ReadReq hits
system.cpu.icache.ReadReq_hits::total        26844596                       # number of ReadReq hits
system.cpu.icache.ReadReq_misses::.cpu.inst      1057915                       # number of ReadReq misses
system.cpu.icache.ReadReq_misses::total       1057915                       # number of ReadReq misses
system.cpu.icache.ReadReq_miss_latency::.cpu.inst  13787396500                       # number of ReadReq miss cycles
system.cpu.icache.ReadReq_miss_latency::total  13787396500                       # number of ReadReq miss cycles
system.cpu.icache.ReadReq_accesses::.cpu.inst     27902511                       # number of ReadReq accesses(hits+misses)
system.cpu.icache.ReadReq_accesses::total     27902511                       # number of ReadReq accesses(hits+misses)
system.cpu.icache.ReadReq_miss_rate::.cpu.inst     0.037915                       # miss rate for ReadReq accesses
system.cpu.icache.ReadReq_miss_rate::total     0.037915                       # miss rate for ReadReq accesses
system.cpu.icache.ReadReq_avg_miss_latency::.cpu.inst 13032.612734                       # average ReadReq miss latency
system.cpu.icache.ReadReq_avg_miss_latency::total 13032.612734                       # average ReadReq miss latency
system.cpu.icache.ReadReq_mshr_misses::.cpu.inst      1057915                       # number of ReadReq MSHR misses
system.cpu.icache.ReadReq_mshr_misses::total      1057915                       # number of ReadReq MSHR misses
system.cpu.icache.ReadReq_mshr_miss_latency::.cpu.inst  12729481500                       # number of ReadReq MSHR miss cycles
system.cpu.icache.ReadReq_mshr_miss_latency::total  12729481500                       # number of ReadReq MSHR miss cycles
system.cpu.icache.ReadReq_mshr_miss_rate::.cpu.inst     0.037915                       # mshr miss rate for ReadReq accesses
system.cpu.icache.ReadReq_mshr_miss_rate::total     0.037915                       # mshr miss rate for ReadReq accesses
system.cpu.icache.ReadReq_avg_mshr_miss_latency::.cpu.inst 12032.612734                       # average ReadReq mshr miss latency
system.cpu.icache.ReadReq_avg_mshr_miss_latency::total 12032.612734                       # average ReadReq mshr miss latency
system.cpu.icache.power_state.pwrStateResidencyTicks::UNDEFINED  67090855500                       # Cumulative time (in ticks) in various power states
system.cpu.icache.tags.tagsinuse           347.867726                       # Cycle average of tags in use
system.cpu.icache.tags.total_refs            27902511                       # Total number of references to valid blocks.
system.cpu.icache.tags.sampled_refs           1057915                       # Sample count of references to valid blocks.
system.cpu.icache.tags.avg_refs             26.375003                       # Average number of references to valid blocks.
system.cpu.icache.tags.warmup_cycle             87500                       # Cycle when the warmup percentage was hit.
system.cpu.icache.tags.occ_blocks::.cpu.inst   347.867726                       # Average occupied blocks per requestor
system.cpu.icache.tags.occ_percent::.cpu.inst     0.679429                       # Average percentage of cache occupancy
system.cpu.icache.tags.occ_percent::total     0.679429                       # Average percentage of cache occupancy
system.cpu.icache.tags.occ_task_id_blocks::1024          348                       # Occupied blocks per task id
system.cpu.icache.tags.age_task_id_blocks_1024::0           12                       # Occupied blocks per task id
system.cpu.icache.tags.age_task_id_blocks_1024::2            2                       # Occupied blocks per task id
system.cpu.icache.tags.age_task_id_blocks_1024::3            1                       # Occupied blocks per task id
system.cpu.icache.tags.age_task_id_blocks_1024::4          333                       # Occupied blocks per task id
system.cpu.icache.tags.occ_task_id_percent::1024     0.679688                       # Percentage of cache occupancy per task id
system.cpu.icache.tags.tag_accesses          28960426                       # Number of tag accesses
system.cpu.icache.tags.data_accesses         28960426                       # Number of data accesses
system.cpu.icache.tags.power_state.pwrStateResidencyTicks::UNDEFINED  67090855500                       # Cumulative time (in ticks) in various power states
system.cpu.itb.instHits                             0                       # ITB inst hits
system.cpu.itb.instMisses                           0                       # ITB inst misses
system.cpu.itb.readHits                             0                       # DTB read hits
system.cpu.itb.readMisses                           0                       # DTB read misses
system.cpu.itb.writeHits                            0                       # DTB write hits
system.cpu.itb.writeMisses                          0                       # DTB write misses
system.cpu.itb.inserts                              0                       # Number of times an entry is inserted into the TLB
system.cpu.itb.flushTlb                             0                       # Number of times complete TLB was flushed
system.cpu.itb.flushTlbMva                          0                       # Number of times TLB was flushed by MVA
system.cpu.itb.flushTlbMvaAsid                      0                       # Number of times TLB was flushed by MVA & ASID
system.cpu.itb.flushTlbAsid                         0                       # Number of times TLB was flushed by ASID
system.cpu.itb.flushedEntries                       0                       # Number of entries that have been flushed from TLB
system.cpu.itb.alignFaults                          0                       # Number of TLB faults due to alignment restrictions
system.cpu.itb.prefetchFaults                       0                       # Number of TLB faults due to prefetch
system.cpu.itb.domainFaults                         0                       # Number of TLB faults due to domain restrictions
system.cpu.itb.permsFaults                          0                       # Number of TLB faults due to permissions restrictions
system.cpu.itb.readAccesses                         0                       # DTB read accesses
system.cpu.itb.writeAccesses                        0                       # DTB write accesses
system.cpu.itb.instAccesses                         0                       # ITB inst accesses
system.cpu.itb.hits                                 0                       # Total TLB (inst and data) hits
system.cpu.itb.misses                               0                       # Total TLB (inst and data) misses
system.cpu.itb.accesses                             0                       # Total TLB (inst and data) accesses
system.cpu.itb.stage2_mmu.stage2_tlb.instHits            0                       # ITB inst hits
system.cpu.itb.stage2_mmu.stage2_tlb.instMisses            0                       # ITB inst misses
system.cpu.itb.stage2_mmu.stage2_tlb.readHits            0                       # DTB read hits
system.cpu.itb.stage2_mmu.stage2_tlb.readMisses            0                       # DTB read misses
system.cpu.itb.stage2_mmu.stage2_tlb.writeHits            0                       # DTB write hits
system.cpu.itb.stage2_mmu.stage2_tlb.writeMisses            0                       # DTB write misses
system.cpu.itb.stage2_mmu.stage2_tlb.inserts            0                       # Number of times an entry is inserted into the TLB
system.cpu.itb.stage2_mmu.stage2_tlb.flushTlb            0                       # Number of times complete TLB was flushed
system.cpu.itb.stage2_mmu.stage2_tlb.flushTlbMva            0                       # Number of times TLB was flushed by MVA
system.cpu.itb.stage2_mmu.stage2_tlb.flushTlbMvaAsid            0                       # Number of times TLB was flushed by MVA & ASID
system.cpu.itb.stage2_mmu.stage2_tlb.flushTlbAsid            0                       # Number of times TLB was flushed by ASID
system.cpu.itb.stage2_mmu.stage2_tlb.flushedEntries            0                       # Number of entries that have been flushed from TLB
system.cpu.itb.stage2_mmu.stage2_tlb.alignFaults            0                       # Number of TLB faults due to alignment restrictions
system.cpu.itb.stage2_mmu.stage2_tlb.prefetchFaults            0                       # Number of TLB faults due to prefetch
system.cpu.itb.stage2_mmu.stage2_tlb.domainFaults            0                       # Number of TLB faults due to domain restrictions
system.cpu.itb.stage2_mmu.stage2_tlb.permsFaults            0                       # Number of TLB faults due to permissions restrictions
system.cpu.itb.stage2_mmu.stage2_tlb.readAccesses            0                       # DTB read accesses
system.cpu.itb.stage2_mmu.stage2_tlb.writeAccesses            0                       # DTB write accesses
system.cpu.itb.stage2_mmu.stage2_tlb.instAccesses            0                       # ITB inst accesses
system.cpu.itb.stage2_mmu.stage2_tlb.hits            0                       # Total TLB (inst and data) hits
system.cpu.itb.stage2_mmu.stage2_tlb.misses            0                       # Total TLB (inst and data) misses
system.cpu.itb.stage2_mmu.stage2_tlb.accesses            0                       # Total TLB (inst and data) accesses
system.cpu.itb.stage2_mmu.stage2_tlb.walker.walks            0                       # Table walker walks requested
system.cpu.itb.stage2_mmu.stage2_tlb.walker.requestOrigin_Requested::Data            0                       # Table walker requests started/completed, data/inst
system.cpu.itb.stage2_mmu.stage2_tlb.walker.requestOrigin_Requested::Inst            0                       # Table walker requests started/completed, data/inst
system.cpu.itb.stage2_mmu.stage2_tlb.walker.requestOrigin_Requested::total            0                       # Table walker requests started/completed, data/inst
system.cpu.itb.stage2_mmu.stage2_tlb.walker.requestOrigin_Completed::Data            0                       # Table walker requests started/completed, data/inst
system.cpu.itb.stage2_mmu.stage2_tlb.walker.requestOrigin_Completed::Inst            0                       # Table walker requests started/completed, data/inst
system.cpu.itb.stage2_mmu.stage2_tlb.walker.requestOrigin_Completed::total            0                       # Table walker requests started/completed, data/inst
system.cpu.itb.stage2_mmu.stage2_tlb.walker.requestOrigin::total            0                       # Table walker requests started/completed, data/inst
system.cpu.itb.stage2_mmu.stage2_tlb.walker.power_state.pwrStateResidencyTicks::UNDEFINED  67090855500                       # Cumulative time (in ticks) in various power states
system.cpu.itb.walker.walks                         0                       # Table walker walks requested
system.cpu.itb.walker.requestOrigin_Requested::Data            0                       # Table walker requests started/completed, data/inst
system.cpu.itb.walker.requestOrigin_Requested::Inst            0                       # Table walker requests started/completed, data/inst
system.cpu.itb.walker.requestOrigin_Requested::total            0                       # Table walker requests started/completed, data/inst
system.cpu.itb.walker.requestOrigin_Completed::Data            0                       # Table walker requests started/completed, data/inst
system.cpu.itb.walker.requestOrigin_Completed::Inst            0                       # Table walker requests started/completed, data/inst
system.cpu.itb.walker.requestOrigin_Completed::total            0                       # Table walker requests started/completed, data/inst
system.cpu.itb.walker.requestOrigin::total            0                       # Table walker requests started/completed, data/inst
system.cpu.itb.walker.power_state.pwrStateResidencyTicks::UNDEFINED  67090855500                       # Cumulative time (in ticks) in various power states
system.cpu.power_state.pwrStateResidencyTicks::ON  67090855500                       # Cumulative time (in ticks) in various power states
system.cpu.thread0.numInsts                 100000001                       # Number of Instructions committed
system.cpu.thread0.numOps                   109431274                       # Number of Ops committed
system.cpu.thread0.numMemRefs                       0                       # Number of Memory References
system.cpu_clk_domain.clock                       500                       # Clock period in ticks
system.cpu_voltage_domain.voltage                   1                       # Voltage in Volts
system.l2.demand_hits::.cpu.inst              1057394                       # number of demand (read+write) hits
system.l2.demand_hits::.cpu.data                33315                       # number of demand (read+write) hits
system.l2.demand_hits::total                  1090709                       # number of demand (read+write) hits
system.l2.overall_hits::.cpu.inst             1057394                       # number of overall hits
system.l2.overall_hits::.cpu.data               33315                       # number of overall hits
system.l2.overall_hits::total                 1090709                       # number of overall hits
system.l2.demand_misses::.cpu.inst                521                       # number of demand (read+write) misses
system.l2.demand_misses::.cpu.data              39368                       # number of demand (read+write) misses
system.l2.demand_misses::total                  39889                       # number of demand (read+write) misses
system.l2.overall_misses::.cpu.inst               521                       # number of overall misses
system.l2.overall_misses::.cpu.data             39368                       # number of overall misses
system.l2.overall_misses::total                 39889                       # number of overall misses
system.l2.demand_miss_latency::.cpu.inst     39676000                       # number of demand (read+write) miss cycles
system.l2.demand_miss_latency::.cpu.data   3131293000                       # number of demand (read+write) miss cycles
system.l2.demand_miss_latency::total       3170969000                       # number of demand (read+write) miss cycles
system.l2.overall_miss_latency::.cpu.inst     39676000                       # number of overall miss cycles
system.l2.overall_miss_latency::.cpu.data   3131293000                       # number of overall miss cycles
system.l2.overall_miss_latency::total      3170969000                       # number of overall miss cycles
system.l2.demand_accesses::.cpu.inst          1057915                       # number of demand (read+write) accesses
system.l2.demand_accesses::.cpu.data            72683                       # number of demand (read+write) accesses
system.l2.demand_accesses::total              1130598                       # number of demand (read+write) accesses
system.l2.overall_accesses::.cpu.inst         1057915                       # number of overall (read+write) accesses
system.l2.overall_accesses::.cpu.data           72683                       # number of overall (read+write) accesses
system.l2.overall_accesses::total             1130598                       # number of overall (read+write) accesses
system.l2.demand_miss_rate::.cpu.inst        0.000492                       # miss rate for demand accesses
system.l2.demand_miss_rate::.cpu.data        0.541640                       # miss rate for demand accesses
system.l2.demand_miss_rate::total            0.035281                       # miss rate for demand accesses
system.l2.overall_miss_rate::.cpu.inst       0.000492                       # miss rate for overall accesses
system.l2.overall_miss_rate::.cpu.data       0.541640                       # miss rate for overall accesses
system.l2.overall_miss_rate::total           0.035281                       # miss rate for overall accesses
system.l2.demand_avg_miss_latency::.cpu.inst 76153.550864                       # average overall miss latency
system.l2.demand_avg_miss_latency::.cpu.data 79539.041861                       # average overall miss latency
system.l2.demand_avg_miss_latency::total 79494.823134                       # average overall miss latency
system.l2.overall_avg_miss_latency::.cpu.inst 76153.550864                       # average overall miss latency
system.l2.overall_avg_miss_latency::.cpu.data 79539.041861                       # average overall miss latency
system.l2.overall_avg_miss_latency::total 79494.823134                       # average overall miss latency
system.l2.blocked_cycles::no_mshrs                  0                       # number of cycles access was blocked
system.l2.blocked_cycles::no_targets                0                       # number of cycles access was blocked
system.l2.blocked::no_mshrs                         0                       # number of cycles access was blocked
system.l2.blocked::no_targets                       0                       # number of cycles access was blocked
system.l2.avg_blocked_cycles::no_mshrs            nan                       # average number of cycles each access was blocked
system.l2.avg_blocked_cycles::no_targets          nan                       # average number of cycles each access was blocked
system.l2.writebacks::.writebacks                6579                       # number of writebacks
system.l2.writebacks::total                      6579                       # number of writebacks
system.l2.demand_mshr_hits::.cpu.inst               1                       # number of demand (read+write) MSHR hits
system.l2.demand_mshr_hits::.cpu.data               5                       # number of demand (read+write) MSHR hits
system.l2.demand_mshr_hits::total                   6                       # number of demand (read+write) MSHR hits
system.l2.overall_mshr_hits::.cpu.inst              1                       # number of overall MSHR hits
system.l2.overall_mshr_hits::.cpu.data              5                       # number of overall MSHR hits
system.l2.overall_mshr_hits::total                  6                       # number of overall MSHR hits
system.l2.demand_mshr_misses::.cpu.inst           520                       # number of demand (read+write) MSHR misses
system.l2.demand_mshr_misses::.cpu.data         39363                       # number of demand (read+write) MSHR misses
system.l2.demand_mshr_misses::total             39883                       # number of demand (read+write) MSHR misses
system.l2.overall_mshr_misses::.cpu.inst          520                       # number of overall MSHR misses
system.l2.overall_mshr_misses::.cpu.data        39363                       # number of overall MSHR misses
system.l2.overall_mshr_misses::total            39883                       # number of overall MSHR misses
system.l2.demand_mshr_miss_latency::.cpu.inst     34411500                       # number of demand (read+write) MSHR miss cycles
system.l2.demand_mshr_miss_latency::.cpu.data   2737337500                       # number of demand (read+write) MSHR miss cycles
system.l2.demand_mshr_miss_latency::total   2771749000                       # number of demand (read+write) MSHR miss cycles
system.l2.overall_mshr_miss_latency::.cpu.inst     34411500                       # number of overall MSHR miss cycles
system.l2.overall_mshr_miss_latency::.cpu.data   2737337500                       # number of overall MSHR miss cycles
system.l2.overall_mshr_miss_latency::total   2771749000                       # number of overall MSHR miss cycles
system.l2.demand_mshr_miss_rate::.cpu.inst     0.000492                       # mshr miss rate for demand accesses
system.l2.demand_mshr_miss_rate::.cpu.data     0.541571                       # mshr miss rate for demand accesses
system.l2.demand_mshr_miss_rate::total       0.035276                       # mshr miss rate for demand accesses
system.l2.overall_mshr_miss_rate::.cpu.inst     0.000492                       # mshr miss rate for overall accesses
system.l2.overall_mshr_miss_rate::.cpu.data     0.541571                       # mshr miss rate for overall accesses
system.l2.overall_mshr_miss_rate::total      0.035276                       # mshr miss rate for overall accesses
system.l2.demand_avg_mshr_miss_latency::.cpu.inst 66175.961538                       # average overall mshr miss latency
system.l2.demand_avg_mshr_miss_latency::.cpu.data 69540.875949                       # average overall mshr miss latency
system.l2.demand_avg_mshr_miss_latency::total 69497.003736                       # average overall mshr miss latency
system.l2.overall_avg_mshr_miss_latency::.cpu.inst 66175.961538                       # average overall mshr miss latency
system.l2.overall_avg_mshr_miss_latency::.cpu.data 69540.875949                       # average overall mshr miss latency
system.l2.overall_avg_mshr_miss_latency::total 69497.003736                       # average overall mshr miss latency
system.l2.replacements                           7116                       # number of replacements
system.l2.WritebackDirty_hits::.writebacks        60312                       # number of WritebackDirty hits
system.l2.WritebackDirty_hits::total            60312                       # number of WritebackDirty hits
system.l2.WritebackDirty_accesses::.writebacks        60312                       # number of WritebackDirty accesses(hits+misses)
system.l2.WritebackDirty_accesses::total        60312                       # number of WritebackDirty accesses(hits+misses)
system.l2.WritebackClean_hits::.writebacks      1057511                       # number of WritebackClean hits
system.l2.WritebackClean_hits::total          1057511                       # number of WritebackClean hits
system.l2.WritebackClean_accesses::.writebacks      1057511                       # number of WritebackClean accesses(hits+misses)
system.l2.WritebackClean_accesses::total      1057511                       # number of WritebackClean accesses(hits+misses)
system.l2.ReadExReq_hits::.cpu.data              4276                       # number of ReadExReq hits
system.l2.ReadExReq_hits::total                  4276                       # number of ReadExReq hits
system.l2.ReadExReq_misses::.cpu.data           38810                       # number of ReadExReq misses
system.l2.ReadExReq_misses::total               38810                       # number of ReadExReq misses
system.l2.ReadExReq_miss_latency::.cpu.data   3082490000                       # number of ReadExReq miss cycles
system.l2.ReadExReq_miss_latency::total    3082490000                       # number of ReadExReq miss cycles
system.l2.ReadExReq_accesses::.cpu.data         43086                       # number of ReadExReq accesses(hits+misses)
system.l2.ReadExReq_accesses::total             43086                       # number of ReadExReq accesses(hits+misses)
system.l2.ReadExReq_miss_rate::.cpu.data     0.900757                       # miss rate for ReadExReq accesses
system.l2.ReadExReq_miss_rate::total         0.900757                       # miss rate for ReadExReq accesses
system.l2.ReadExReq_avg_miss_latency::.cpu.data 79425.148158                       # average ReadExReq miss latency
system.l2.ReadExReq_avg_miss_latency::total 79425.148158                       # average ReadExReq miss latency
system.l2.ReadExReq_mshr_misses::.cpu.data        38810                       # number of ReadExReq MSHR misses
system.l2.ReadExReq_mshr_misses::total          38810                       # number of ReadExReq MSHR misses
system.l2.ReadExReq_mshr_miss_latency::.cpu.data   2694390000                       # number of ReadExReq MSHR miss cycles
system.l2.ReadExReq_mshr_miss_latency::total   2694390000                       # number of ReadExReq MSHR miss cycles
system.l2.ReadExReq_mshr_miss_rate::.cpu.data     0.900757                       # mshr miss rate for ReadExReq accesses
system.l2.ReadExReq_mshr_miss_rate::total     0.900757                       # mshr miss rate for ReadExReq accesses
system.l2.ReadExReq_avg_mshr_miss_latency::.cpu.data 69425.148158                       # average ReadExReq mshr miss latency
system.l2.ReadExReq_avg_mshr_miss_latency::total 69425.148158                       # average ReadExReq mshr miss latency
system.l2.ReadCleanReq_hits::.cpu.inst        1057394                       # number of ReadCleanReq hits
system.l2.ReadCleanReq_hits::total            1057394                       # number of ReadCleanReq hits
system.l2.ReadCleanReq_misses::.cpu.inst          521                       # number of ReadCleanReq misses
system.l2.ReadCleanReq_misses::total              521                       # number of ReadCleanReq misses
system.l2.ReadCleanReq_miss_latency::.cpu.inst     39676000                       # number of ReadCleanReq miss cycles
system.l2.ReadCleanReq_miss_latency::total     39676000                       # number of ReadCleanReq miss cycles
system.l2.ReadCleanReq_accesses::.cpu.inst      1057915                       # number of ReadCleanReq accesses(hits+misses)
system.l2.ReadCleanReq_accesses::total        1057915                       # number of ReadCleanReq accesses(hits+misses)
system.l2.ReadCleanReq_miss_rate::.cpu.inst     0.000492                       # miss rate for ReadCleanReq accesses
system.l2.ReadCleanReq_miss_rate::total      0.000492                       # miss rate for ReadCleanReq accesses
system.l2.ReadCleanReq_avg_miss_latency::.cpu.inst 76153.550864                       # average ReadCleanReq miss latency
system.l2.ReadCleanReq_avg_miss_latency::total 76153.550864                       # average ReadCleanReq miss latency
system.l2.ReadCleanReq_mshr_hits::.cpu.inst            1                       # number of ReadCleanReq MSHR hits
system.l2.ReadCleanReq_mshr_hits::total             1                       # number of ReadCleanReq MSHR hits
system.l2.ReadCleanReq_mshr_misses::.cpu.inst          520                       # number of ReadCleanReq MSHR misses
system.l2.ReadCleanReq_mshr_misses::total          520                       # number of ReadCleanReq MSHR misses
system.l2.ReadCleanReq_mshr_miss_latency::.cpu.inst     34411500                       # number of ReadCleanReq MSHR miss cycles
system.l2.ReadCleanReq_mshr_miss_latency::total     34411500                       # number of ReadCleanReq MSHR miss cycles
system.l2.ReadCleanReq_mshr_miss_rate::.cpu.inst     0.000492                       # mshr miss rate for ReadCleanReq accesses
system.l2.ReadCleanReq_mshr_miss_rate::total     0.000492                       # mshr miss rate for ReadCleanReq accesses
system.l2.ReadCleanReq_avg_mshr_miss_latency::.cpu.inst 66175.961538                       # average ReadCleanReq mshr miss latency
system.l2.ReadCleanReq_avg_mshr_miss_latency::total 66175.961538                       # average ReadCleanReq mshr miss latency
system.l2.ReadSharedReq_hits::.cpu.data         29039                       # number of ReadSharedReq hits
system.l2.ReadSharedReq_hits::total             29039                       # number of ReadSharedReq hits
system.l2.ReadSharedReq_misses::.cpu.data          558                       # number of ReadSharedReq misses
system.l2.ReadSharedReq_misses::total             558                       # number of ReadSharedReq misses
system.l2.ReadSharedReq_miss_latency::.cpu.data     48803000                       # number of ReadSharedReq miss cycles
system.l2.ReadSharedReq_miss_latency::total     48803000                       # number of ReadSharedReq miss cycles
system.l2.ReadSharedReq_accesses::.cpu.data        29597                       # number of ReadSharedReq accesses(hits+misses)
system.l2.ReadSharedReq_accesses::total         29597                       # number of ReadSharedReq accesses(hits+misses)
system.l2.ReadSharedReq_miss_rate::.cpu.data     0.018853                       # miss rate for ReadSharedReq accesses
system.l2.ReadSharedReq_miss_rate::total     0.018853                       # miss rate for ReadSharedReq accesses
system.l2.ReadSharedReq_avg_miss_latency::.cpu.data 87460.573477                       # average ReadSharedReq miss latency
system.l2.ReadSharedReq_avg_miss_latency::total 87460.573477                       # average ReadSharedReq miss latency
system.l2.ReadSharedReq_mshr_hits::.cpu.data            5                       # number of ReadSharedReq MSHR hits
system.l2.ReadSharedReq_mshr_hits::total            5                       # number of ReadSharedReq MSHR hits
system.l2.ReadSharedReq_mshr_misses::.cpu.data          553                       # number of ReadSharedReq MSHR misses
system.l2.ReadSharedReq_mshr_misses::total          553                       # number of ReadSharedReq MSHR misses
system.l2.ReadSharedReq_mshr_miss_latency::.cpu.data     42947500                       # number of ReadSharedReq MSHR miss cycles
system.l2.ReadSharedReq_mshr_miss_latency::total     42947500                       # number of ReadSharedReq MSHR miss cycles
system.l2.ReadSharedReq_mshr_miss_rate::.cpu.data     0.018684                       # mshr miss rate for ReadSharedReq accesses
system.l2.ReadSharedReq_mshr_miss_rate::total     0.018684                       # mshr miss rate for ReadSharedReq accesses
system.l2.ReadSharedReq_avg_mshr_miss_latency::.cpu.data 77662.748644                       # average ReadSharedReq mshr miss latency
system.l2.ReadSharedReq_avg_mshr_miss_latency::total 77662.748644                       # average ReadSharedReq mshr miss latency
system.l2.power_state.pwrStateResidencyTicks::UNDEFINED  67090855500                       # Cumulative time (in ticks) in various power states
system.l2.tags.tagsinuse                 26198.419030                       # Cycle average of tags in use
system.l2.tags.total_refs                     2258337                       # Total number of references to valid blocks.
system.l2.tags.sampled_refs                     39884                       # Sample count of references to valid blocks.
system.l2.tags.avg_refs                     56.622631                       # Average number of references to valid blocks.
system.l2.tags.warmup_cycle                     77000                       # Cycle when the warmup percentage was hit.
system.l2.tags.occ_blocks::.writebacks       0.328691                       # Average occupied blocks per requestor
system.l2.tags.occ_blocks::.cpu.inst       282.488631                       # Average occupied blocks per requestor
system.l2.tags.occ_blocks::.cpu.data     25915.601708                       # Average occupied blocks per requestor
system.l2.tags.occ_percent::.writebacks      0.000010                       # Average percentage of cache occupancy
system.l2.tags.occ_percent::.cpu.inst        0.008621                       # Average percentage of cache occupancy
system.l2.tags.occ_percent::.cpu.data        0.790881                       # Average percentage of cache occupancy
system.l2.tags.occ_percent::total            0.799512                       # Average percentage of cache occupancy
system.l2.tags.occ_task_id_blocks::1024         32768                       # Occupied blocks per task id
system.l2.tags.age_task_id_blocks_1024::0            3                       # Occupied blocks per task id
system.l2.tags.age_task_id_blocks_1024::1           29                       # Occupied blocks per task id
system.l2.tags.age_task_id_blocks_1024::2          346                       # Occupied blocks per task id
system.l2.tags.age_task_id_blocks_1024::3         3220                       # Occupied blocks per task id
system.l2.tags.age_task_id_blocks_1024::4        29170                       # Occupied blocks per task id
system.l2.tags.occ_task_id_percent::1024            1                       # Percentage of cache occupancy per task id
system.l2.tags.tag_accesses                   9073256                       # Number of tag accesses
system.l2.tags.data_accesses                  9073256                       # Number of data accesses
system.l2.tags.power_state.pwrStateResidencyTicks::UNDEFINED  67090855500                       # Cumulative time (in ticks) in various power states
system.mem_ctrls.avgPriority_.writebacks::samples      6579.00                       # Average QoS priority value for accepted requests
system.mem_ctrls.avgPriority_.cpu.inst::samples       520.00                       # Average QoS priority value for accepted requests
system.mem_ctrls.avgPriority_.cpu.data::samples     39360.00                       # Average QoS priority value for accepted requests
system.mem_ctrls.priorityMinLatency      0.000000018750                       # per QoS priority minimum request to response latency (s)
system.mem_ctrls.priorityMaxLatency      0.030543644500                       # per QoS priority maximum request to response latency (s)
system.mem_ctrls.numReadWriteTurnArounds          364                       # Number of turnarounds from READ to WRITE
system.mem_ctrls.numWriteReadTurnArounds          364                       # Number of turnarounds from WRITE to READ
system.mem_ctrls.numStayReadState              103543                       # Number of times bus staying in READ state
system.mem_ctrls.numStayWriteState               6204                       # Number of times bus staying in WRITE state
system.mem_ctrls.readReqs                       39883                       # Number of read requests accepted
system.mem_ctrls.writeReqs                       6579                       # Number of write requests accepted
system.mem_ctrls.readBursts                     39883                       # Number of controller read bursts, including those serviced by the write queue
system.mem_ctrls.writeBursts                     6579                       # Number of controller write bursts, including those merged in the write queue
system.mem_ctrls.servicedByWrQ                      3                       # Number of controller read bursts serviced by the write queue
system.mem_ctrls.mergedWrBursts                     0                       # Number of controller write bursts merged with an existing one
system.mem_ctrls.neitherReadNorWriteReqs            0                       # Number of requests that are neither read nor write
system.mem_ctrls.avgRdQLen                       1.00                       # Average read queue length when enqueuing
system.mem_ctrls.avgWrQLen                      13.39                       # Average write queue length when enqueuing
system.mem_ctrls.numRdRetry                         0                       # Number of times read queue was full causing retry
system.mem_ctrls.numWrRetry                         0                       # Number of times write queue was full causing retry
system.mem_ctrls.readPktSize::0                     0                       # Read request sizes (log2)
system.mem_ctrls.readPktSize::1                     0                       # Read request sizes (log2)
[...]
system.mem_ctrls.dram.bw_write::.writebacks      6275907                       # Write bandwidth from this memory (bytes/s)
system.mem_ctrls.dram.bw_write::total         6275907                       # Write bandwidth from this memory (bytes/s)
system.mem_ctrls.dram.bw_total::.writebacks      6275907                       # Total bandwidth to/from this memory (bytes/s)
system.mem_ctrls.dram.bw_total::.cpu.inst       496044                       # Total bandwidth to/from this memory (bytes/s)
system.mem_ctrls.dram.bw_total::.cpu.data     37549558                       # Total bandwidth to/from this memory (bytes/s)
system.mem_ctrls.dram.bw_total::total        44321510                       # Total bandwidth to/from this memory (bytes/s)
system.mem_ctrls.dram.readBursts                39880                       # Number of DRAM read bursts
system.mem_ctrls.dram.writeBursts                6558                       # Number of DRAM write bursts
system.mem_ctrls.dram.perBankRdBursts::0         2529                       # Per bank write bursts
system.mem_ctrls.dram.perBankRdBursts::1         2494                       # Per bank write bursts
system.mem_ctrls.dram.perBankRdBursts::2         2483                       # Per bank write bursts
system.mem_ctrls.dram.perBankRdBursts::3         2593                       # Per bank write bursts
system.mem_ctrls.dram.perBankRdBursts::4         2453                       # Per bank write bursts
system.mem_ctrls.dram.perBankRdBursts::5         2390                       # Per bank write bursts
system.mem_ctrls.dram.perBankRdBursts::6         2450                       # Per bank write bursts
system.mem_ctrls.dram.perBankRdBursts::7         2464                       # Per bank write bursts
system.mem_ctrls.dram.perBankRdBursts::8         2476                       # Per bank write bursts
system.mem_ctrls.dram.perBankRdBursts::9         2505                       # Per bank write bursts
system.mem_ctrls.dram.perBankRdBursts::10         2492                       # Per bank write bursts
system.mem_ctrls.dram.perBankRdBursts::11         2515                       # Per bank write bursts
system.mem_ctrls.dram.perBankRdBursts::12         2504                       # Per bank write bursts
system.mem_ctrls.dram.perBankRdBursts::13         2489                       # Per bank write bursts
system.mem_ctrls.dram.perBankRdBursts::14         2522                       # Per bank write bursts
system.mem_ctrls.dram.perBankRdBursts::15         2521                       # Per bank write bursts
system.mem_ctrls.dram.perBankWrBursts::0          452                       # Per bank write bursts
system.mem_ctrls.dram.perBankWrBursts::1          413                       # Per bank write bursts
system.mem_ctrls.dram.perBankWrBursts::2          422                       # Per bank write bursts
system.mem_ctrls.dram.perBankWrBursts::3          474                       # Per bank write bursts
system.mem_ctrls.dram.perBankWrBursts::4          367                       # Per bank write bursts
system.mem_ctrls.dram.perBankWrBursts::5          342                       # Per bank write bursts
system.mem_ctrls.dram.perBankWrBursts::6          402                       # Per bank write bursts
system.mem_ctrls.dram.perBankWrBursts::7          397                       # Per bank write bursts
system.mem_ctrls.dram.perBankWrBursts::8          409                       # Per bank write bursts
system.mem_ctrls.dram.perBankWrBursts::9          404                       # Per bank write bursts
system.mem_ctrls.dram.perBankWrBursts::10          403                       # Per bank write bursts
system.mem_ctrls.dram.perBankWrBursts::11          404                       # Per bank write bursts
system.mem_ctrls.dram.perBankWrBursts::12          406                       # Per bank write bursts
system.mem_ctrls.dram.perBankWrBursts::13          417                       # Per bank write bursts
system.mem_ctrls.dram.perBankWrBursts::14          400                       # Per bank write bursts
system.mem_ctrls.dram.perBankWrBursts::15          446                       # Per bank write bursts
system.mem_ctrls.dram.totQLat               387551000                       # Total ticks spent queuing
system.mem_ctrls.dram.totBusLat             199400000                       # Total ticks spent in databus transfers
system.mem_ctrls.dram.totMemAccLat         1135301000                       # Total ticks spent from burst creation until serviced by the DRAM
system.mem_ctrls.dram.avgQLat                 9717.93                       # Average queueing delay per DRAM burst
system.mem_ctrls.dram.avgBusLat               5000.00                       # Average bus latency per DRAM burst
system.mem_ctrls.dram.avgMemAccLat           28467.93                       # Average memory access latency per DRAM burst
system.mem_ctrls.dram.readRowHits               28879                       # Number of row buffer hits during reads
system.mem_ctrls.dram.writeRowHits               5511                       # Number of row buffer hits during writes
system.mem_ctrls.dram.readRowHitRate            72.41                       # Row buffer hit rate for reads
system.mem_ctrls.dram.writeRowHitRate           84.03                       # Row buffer hit rate for writes
system.mem_ctrls.dram.bytesPerActivate::samples        12047                       # Bytes accessed per row activation
system.mem_ctrls.dram.bytesPerActivate::mean   246.697767                       # Bytes accessed per row activation
system.mem_ctrls.dram.bytesPerActivate::gmean   190.157901                       # Bytes accessed per row activation
system.mem_ctrls.dram.bytesPerActivate::stdev   215.205947                       # Bytes accessed per row activation
system.mem_ctrls.dram.bytesPerActivate::0-127         1345     11.16%     11.16% # Bytes accessed per row activation
system.mem_ctrls.dram.bytesPerActivate::128-255         7761     64.42%     75.59% # Bytes accessed per row activation
system.mem_ctrls.dram.bytesPerActivate::256-383          892      7.40%     82.99% # Bytes accessed per row activation
system.mem_ctrls.dram.bytesPerActivate::384-511          370      3.07%     86.06% # Bytes accessed per row activation
system.mem_ctrls.dram.bytesPerActivate::512-639          568      4.71%     90.78% # Bytes accessed per row activation
system.mem_ctrls.dram.bytesPerActivate::640-767          188      1.56%     92.34% # Bytes accessed per row activation
system.mem_ctrls.dram.bytesPerActivate::768-895          538      4.47%     96.80% # Bytes accessed per row activation
system.mem_ctrls.dram.bytesPerActivate::896-1023          182      1.51%     98.31% # Bytes accessed per row activation
system.mem_ctrls.dram.bytesPerActivate::1024-1151          203      1.69%    100.00% # Bytes accessed per row activation
system.mem_ctrls.dram.bytesPerActivate::total        12047                       # Bytes accessed per row activation
system.mem_ctrls.dram.bytesRead               2552320                       # Total number of bytes read from DRAM
system.mem_ctrls.dram.bytesWritten             419712                       # Total number of bytes written to DRAM
system.mem_ctrls.dram.avgRdBW               38.042740                       # Average DRAM read bandwidth in MiBytes/s
system.mem_ctrls.dram.avgWrBW                6.255875                       # Average DRAM write bandwidth in MiBytes/s
system.mem_ctrls.dram.peakBW                 12800.00                       # Theoretical peak bandwidth in MiByte/s
system.mem_ctrls.dram.busUtil                    0.35                       # Data bus utilization in percentage
system.mem_ctrls.dram.busUtilRead                0.30                       # Data bus utilization in percentage for reads
system.mem_ctrls.dram.busUtilWrite               0.05                       # Data bus utilization in percentage for writes
system.mem_ctrls.dram.pageHitRate               74.06                       # Row buffer hit rate, read and write combined
system.mem_ctrls.dram.power_state.pwrStateResidencyTicks::UNDEFINED  67090855500                       # Cumulative time (in ticks) in various power states
system.mem_ctrls.dram.rank0.actEnergy        43718220                       # Energy for activate commands per rank (pJ)
system.mem_ctrls.dram.rank0.preEnergy        23232990                       # Energy for precharge commands per rank (pJ)
system.mem_ctrls.dram.rank0.readEnergy      141771840                       # Energy for read commands per rank (pJ)
system.mem_ctrls.dram.rank0.writeEnergy      17064180                       # Energy for write commands per rank (pJ)
system.mem_ctrls.dram.rank0.refreshEnergy 5295738240.000001                       # Energy for refresh commands per rank (pJ)
system.mem_ctrls.dram.rank0.actBackEnergy  14185071300                       # Energy for active background per rank (pJ)
system.mem_ctrls.dram.rank0.preBackEnergy  13817565600                       # Energy for precharge background per rank (pJ)
system.mem_ctrls.dram.rank0.actPowerDownEnergy            0                       # Energy for active power-down per rank (pJ)
system.mem_ctrls.dram.rank0.prePowerDownEnergy            0                       # Energy for precharge power-down per rank (pJ)
system.mem_ctrls.dram.rank0.selfRefreshEnergy            0                       # Energy for self refresh per rank (pJ)
system.mem_ctrls.dram.rank0.totalEnergy   33524162370                       # Total energy per rank (pJ)
system.mem_ctrls.dram.rank0.averagePower   499.683036                       # Core power per rank (mW)
system.mem_ctrls.dram.rank0.totalIdleTime            0                       # Total Idle time Per DRAM Rank
system.mem_ctrls.dram.rank0.pwrStateTime::IDLE  35796321000                       # Time in different power states
system.mem_ctrls.dram.rank0.pwrStateTime::REF   2240160000                       # Time in different power states
system.mem_ctrls.dram.rank0.pwrStateTime::SREF            0                       # Time in different power states
system.mem_ctrls.dram.rank0.pwrStateTime::PRE_PDN            0                       # Time in different power states
system.mem_ctrls.dram.rank0.pwrStateTime::ACT  29054374500                       # Time in different power states
system.mem_ctrls.dram.rank0.pwrStateTime::ACT_PDN            0                       # Time in different power states
system.mem_ctrls.dram.rank1.actEnergy        42304500                       # Energy for activate commands per rank (pJ)
system.mem_ctrls.dram.rank1.preEnergy        22485375                       # Energy for precharge commands per rank (pJ)
system.mem_ctrls.dram.rank1.readEnergy      142971360                       # Energy for read commands per rank (pJ)
system.mem_ctrls.dram.rank1.writeEnergy      17168580                       # Energy for write commands per rank (pJ)
system.mem_ctrls.dram.rank1.refreshEnergy 5295738240.000001                       # Energy for refresh commands per rank (pJ)
system.mem_ctrls.dram.rank1.actBackEnergy  13929063780                       # Energy for active background per rank (pJ)
system.mem_ctrls.dram.rank1.preBackEnergy  14033150880                       # Energy for precharge background per rank (pJ)
system.mem_ctrls.dram.rank1.actPowerDownEnergy            0                       # Energy for active power-down per rank (pJ)
system.mem_ctrls.dram.rank1.prePowerDownEnergy            0                       # Energy for precharge power-down per rank (pJ)
system.mem_ctrls.dram.rank1.selfRefreshEnergy            0                       # Energy for self refresh per rank (pJ)
system.mem_ctrls.dram.rank1.totalEnergy   33482882715                       # Total energy per rank (pJ)
system.mem_ctrls.dram.rank1.averagePower   499.067756                       # Core power per rank (mW)
system.mem_ctrls.dram.rank1.totalIdleTime            0                       # Total Idle time Per DRAM Rank
system.mem_ctrls.dram.rank1.pwrStateTime::IDLE  36357946500                       # Time in different power states
system.mem_ctrls.dram.rank1.pwrStateTime::REF   2240160000                       # Time in different power states
system.mem_ctrls.dram.rank1.pwrStateTime::SREF            0                       # Time in different power states
system.mem_ctrls.dram.rank1.pwrStateTime::PRE_PDN            0                       # Time in different power states
system.mem_ctrls.dram.rank1.pwrStateTime::ACT  28492749000                       # Time in different power states
system.mem_ctrls.dram.rank1.pwrStateTime::ACT_PDN            0                       # Time in different power states
system.mem_ctrls.power_state.pwrStateResidencyTicks::UNDEFINED  67090855500                       # Cumulative time (in ticks) in various power states
system.membus.trans_dist::ReadResp               1073                       # Transaction distribution
system.membus.trans_dist::WritebackDirty         6579                       # Transaction distribution
system.membus.trans_dist::CleanEvict              216                       # Transaction distribution
system.membus.trans_dist::ReadExReq             38810                       # Transaction distribution
system.membus.trans_dist::ReadExResp            38810                       # Transaction distribution
system.membus.trans_dist::ReadSharedReq          1073                       # Transaction distribution
system.membus.pkt_count_system.l2.mem_side_port::system.mem_ctrls.port        86561                       # Packet count per connected requestor and responder (bytes)
system.membus.pkt_count::total                  86561                       # Packet count per connected requestor and responder (bytes)
system.membus.pkt_size_system.l2.mem_side_port::system.mem_ctrls.port      2973568                       # Cumulative packet size per connected requestor and responder (bytes)
system.membus.pkt_size::total                 2973568                       # Cumulative packet size per connected requestor and responder (bytes)
system.membus.snoops                                0                       # Total snoops (count)
system.membus.snoopTraffic                          0                       # Total snoop traffic (bytes)
system.membus.snoop_fanout::samples             39883                       # Request fanout histogram
system.membus.snoop_fanout::mean                    0                       # Request fanout histogram
system.membus.snoop_fanout::stdev                   0                       # Request fanout histogram
system.membus.snoop_fanout::underflows              0      0.00%      0.00% # Request fanout histogram
system.membus.snoop_fanout::0                   39883    100.00%    100.00% # Request fanout histogram
system.membus.snoop_fanout::1                       0      0.00%    100.00% # Request fanout histogram
system.membus.snoop_fanout::overflows               0      0.00%    100.00% # Request fanout histogram
system.membus.snoop_fanout::min_value               0                       # Request fanout histogram
system.membus.snoop_fanout::max_value               0                       # Request fanout histogram
system.membus.snoop_fanout::total               39883                       # Request fanout histogram
system.membus.power_state.pwrStateResidencyTicks::UNDEFINED  67090855500                       # Cumulative time (in ticks) in various power states
system.membus.reqLayer0.occupancy            81516000                       # Layer occupancy (ticks)
system.membus.reqLayer0.utilization               0.1                       # Layer utilization (%)
system.membus.respLayer1.occupancy          212083000                       # Layer occupancy (ticks)
system.membus.respLayer1.utilization              0.3                       # Layer utilization (%)
system.tol2bus.trans_dist::ReadResp           1087512                       # Transaction distribution
system.tol2bus.trans_dist::WritebackDirty        66891                       # Transaction distribution
system.tol2bus.trans_dist::WritebackClean      1057567                       # Transaction distribution
system.tol2bus.trans_dist::CleanEvict           11884                       # Transaction distribution
system.tol2bus.trans_dist::ReadExReq            43086                       # Transaction distribution
system.tol2bus.trans_dist::ReadExResp           43086                       # Transaction distribution
system.tol2bus.trans_dist::ReadCleanReq       1057915                       # Transaction distribution
system.tol2bus.trans_dist::ReadSharedReq        29597                       # Transaction distribution
system.tol2bus.pkt_count_system.cpu.icache.mem_side_port::system.l2.cpu_side_port      3173397                       # Packet count per connected requestor and responder (bytes)
system.tol2bus.pkt_count_system.cpu.dcache.mem_side_port::system.l2.cpu_side_port       217025                       # Packet count per connected requestor and responder (bytes)
system.tol2bus.pkt_count::total               3390422                       # Packet count per connected requestor and responder (bytes)
system.tol2bus.pkt_size_system.cpu.icache.mem_side_port::system.l2.cpu_side_port    135390848                       # Cumulative packet size per connected requestor and responder (bytes)
system.tol2bus.pkt_size_system.cpu.dcache.mem_side_port::system.l2.cpu_side_port      8511680                       # Cumulative packet size per connected requestor and responder (bytes)
system.tol2bus.pkt_size::total              143902528                       # Cumulative packet size per connected requestor and responder (bytes)
system.tol2bus.snoops                            7116                       # Total snoops (count)
system.tol2bus.snoopTraffic                    421056                       # Total snoop traffic (bytes)
system.tol2bus.snoop_fanout::samples          1137714                       # Request fanout histogram
system.tol2bus.snoop_fanout::mean            0.001587                       # Request fanout histogram
system.tol2bus.snoop_fanout::stdev           0.039810                       # Request fanout histogram
system.tol2bus.snoop_fanout::underflows             0      0.00%      0.00% # Request fanout histogram
system.tol2bus.snoop_fanout::0                1135908     99.84%     99.84% # Request fanout histogram
system.tol2bus.snoop_fanout::1                   1806      0.16%    100.00% # Request fanout histogram
system.tol2bus.snoop_fanout::2                      0      0.00%    100.00% # Request fanout histogram
system.tol2bus.snoop_fanout::overflows              0      0.00%    100.00% # Request fanout histogram
system.tol2bus.snoop_fanout::min_value              0                       # Request fanout histogram
system.tol2bus.snoop_fanout::max_value              1                       # Request fanout histogram
system.tol2bus.snoop_fanout::total            1137714                       # Request fanout histogram
system.tol2bus.power_state.pwrStateResidencyTicks::UNDEFINED  67090855500                       # Cumulative time (in ticks) in various power states
system.tol2bus.reqLayer0.occupancy         2247791000                       # Layer occupancy (ticks)
system.tol2bus.reqLayer0.utilization              3.4                       # Layer utilization (%)
system.tol2bus.respLayer0.occupancy        1586873498                       # Layer occupancy (ticks)
system.tol2bus.respLayer0.utilization             2.4                       # Layer utilization (%)
system.tol2bus.respLayer1.occupancy         109035977                       # Layer occupancy (ticks)
system.tol2bus.respLayer1.utilization             0.2                       # Layer utilization (%)
system.voltage_domain.voltage                       1                       # Voltage in Volts

---------- End Simulation Statistics   ----------
