
---------- Begin Simulation Statistics ----------
final_tick                                75890060500                       # Number of ticks from beginning of simulation (restored from checkpoints and never reset)
host_inst_rate                                 347491                       # Simulator instruction rate (inst/s)
host_mem_usage                                 687776                       # Number of bytes of host memory used
host_op_rate                                   405962                       # Simulator op (including micro ops) rate (op/s)
host_seconds                                   287.78                       # Real time elapsed on the host
host_tick_rate                              263711019                       # Simulator tick rate (ticks/s)
sim_freq                                 1000000000000                       # Frequency of simulated ticks
sim_insts                                   100000000                       # Number of instructions simulated
sim_ops                                     116826593                       # Number of ops (including micro ops) simulated
sim_seconds                                  0.075890                       # Number of seconds simulated
sim_ticks                                 75890060500                       # Number of ticks simulated
system.cpu.committedInsts                   100000000                       # Number of instructions committed
system.cpu.committedOps                     116826593                       # Number of ops (including micro ops) committed
system.cpu.cpi                               1.517801                       # CPI: cycles per instruction
system.cpu.discardedOps                        502064                       # Number of ops (including micro ops) which were discarded before commit
system.cpu.idleCycles                        13386332                       # Total number of cycles that the object has spent stopped
system.cpu.ipc                               0.658848                       # IPC: instructions per cycle
system.cpu.numCycles                        151780121                       # number of cpu cycles simulated
system.cpu.numFetchSuspends                         0                       # Number of times Execute suspended instruction fetching
system.cpu.numWorkItemsCompleted                    0                       # number of work items this cpu completed
system.cpu.numWorkItemsStarted                      0                       # number of work items this cpu started
system.cpu.op_class_0::No_OpClass                   0      0.00%      0.00% # Class of committed instruction
system.cpu.op_class_0::IntAlu                65231396     55.84%     55.84% # Class of committed instruction
system.cpu.op_class_0::IntMult                 602374      0.52%     56.35% # Class of committed instruction
system.cpu.op_class_0::IntDiv                       0      0.00%     56.35% # Class of committed instruction
system.cpu.op_class_0::FloatAdd                     0      0.00%     56.35% # Class of committed instruction
system.cpu.op_class_0::FloatCmp                     0      0.00%     56.35% # Class of committed instruction
system.cpu.op_class_0::FloatCvt                     0      0.00%     56.35% # Class of committed instruction
system.cpu.op_class_0::FloatMult                    0      0.00%     56.35% # Class of committed instruction
system.cpu.op_class_0::FloatMultAcc                 0      0.00%     56.35% # Class of committed instruction
system.cpu.op_class_0::FloatDiv                     0      0.00%     56.35% # Class of committed instruction
system.cpu.op_class_0::FloatMisc                    0      0.00%     56.35% # Class of committed instruction
system.cpu.op_class_0::FloatSqrt                    0      0.00%     56.35% # Class of committed instruction
system.cpu.op_class_0::SimdAdd                    380      0.00%     56.35% # Class of committed instruction
system.cpu.op_class_0::SimdAddAcc                   0      0.00%     56.35% # Class of committed instruction
system.cpu.op_class_0::SimdAlu                    470      0.00%     56.35% # Class of committed instruction
system.cpu.op_class_0::SimdCmp                    382      0.00%     56.35% # Class of committed instruction
system.cpu.op_class_0::SimdCvt                      0      0.00%     56.35% # Class of committed instruction
system.cpu.op_class_0::SimdMisc                    53      0.00%     56.35% # Class of committed instruction
system.cpu.op_class_0::SimdMult                     0      0.00%     56.35% # Class of committed instruction
system.cpu.op_class_0::SimdMultAcc                  0      0.00%     56.35% # Class of committed instruction
system.cpu.op_class_0::SimdShift                    0      0.00%     56.35% # Class of committed instruction
system.cpu.op_class_0::SimdShiftAcc                 0      0.00%     56.35% # Class of committed instruction
system.cpu.op_class_0::SimdDiv                      0      0.00%     56.35% # Class of committed instruction
system.cpu.op_class_0::SimdSqrt                     0      0.00%     56.35% # Class of committed instruction
system.cpu.op_class_0::SimdFloatAdd            783705      0.67%     57.02% # Class of committed instruction
system.cpu.op_class_0::SimdFloatAlu                 0      0.00%     57.02% # Class of committed instruction
system.cpu.op_class_0::SimdFloatCmp            769156      0.66%     57.68% # Class of committed instruction
system.cpu.op_class_0::SimdFloatCvt            311548      0.27%     57.95% # Class of committed instruction
system.cpu.op_class_0::SimdFloatDiv            152211      0.13%     58.08% # Class of committed instruction
system.cpu.op_class_0::SimdFloatMisc           950762      0.81%     58.89% # Class of committed instruction
system.cpu.op_class_0::SimdFloatMult            86008      0.07%     58.97% # Class of committed instruction
system.cpu.op_class_0::SimdFloatMultAcc         12802      0.01%     58.98% # Class of committed instruction
system.cpu.op_class_0::SimdFloatSqrt                0      0.00%     58.98% # Class of committed instruction
system.cpu.op_class_0::SimdReduceAdd                0      0.00%     58.98% # Class of committed instruction
system.cpu.op_class_0::SimdReduceAlu                0      0.00%     58.98% # Class of committed instruction
system.cpu.op_class_0::SimdReduceCmp                0      0.00%     58.98% # Class of committed instruction
system.cpu.op_class_0::SimdFloatReduceAdd            0      0.00%     58.98% # Class of committed instruction
system.cpu.op_class_0::SimdFloatReduceCmp            0      0.00%     58.98% # Class of committed instruction
system.cpu.op_class_0::SimdAes                      0      0.00%     58.98% # Class of committed instruction
system.cpu.op_class_0::SimdAesMix                   0      0.00%     58.98% # Class of committed instruction
system.cpu.op_class_0::SimdSha1Hash                 0      0.00%     58.98% # Class of committed instruction
system.cpu.op_class_0::SimdSha1Hash2                0      0.00%     58.98% # Class of committed instruction
system.cpu.op_class_0::SimdSha256Hash               0      0.00%     58.98% # Class of committed instruction
system.cpu.op_class_0::SimdSha256Hash2              0      0.00%     58.98% # Class of committed instruction
system.cpu.op_class_0::SimdShaSigma2                0      0.00%     58.98% # Class of committed instruction
system.cpu.op_class_0::SimdShaSigma3                0      0.00%     58.98% # Class of committed instruction
system.cpu.op_class_0::SimdPredAlu                  0      0.00%     58.98% # Class of committed instruction
system.cpu.op_class_0::MemRead               30319972     25.95%     84.93% # Class of committed instruction
system.cpu.op_class_0::MemWrite              17605374     15.07%    100.00% # Class of committed instruction
system.cpu.op_class_0::FloatMemRead                 0      0.00%    100.00% # Class of committed instruction
system.cpu.op_class_0::FloatMemWrite                0      0.00%    100.00% # Class of committed instruction
system.cpu.op_class_0::IprAccess                    0      0.00%    100.00% # Class of committed instruction
system.cpu.op_class_0::InstPrefetch                 0      0.00%    100.00% # Class of committed instruction
system.cpu.op_class_0::total                116826593                       # Class of committed instruction
system.cpu.tickCycles                       138393789                       # Number of cycles that the object actually ticked
system.cpu.workload.numSyscalls                    33                       # Number of system calls
system.membus.snoop_filter.hit_multi_requests            0                       # Number of requests hitting in the snoop filter with multiple (>1) holders of the requested data.
system.membus.snoop_filter.hit_multi_snoops            0                       # Number of snoops hitting in the snoop filter with multiple (>1) holders of the requested data.
system.membus.snoop_filter.hit_single_requests            0                       # Number of requests hitting in the snoop filter with a single holder of the requested data.
system.membus.snoop_filter.hit_single_snoops            0                       # Number of snoops hitting in the snoop filter with a single holder of the requested data.
system.membus.snoop_filter.tot_requests         20199                       # Total number of requests made to the snoop filter.
system.membus.snoop_filter.tot_snoops               0                       # Total number of snoops made to the snoop filter.
system.tol2bus.snoop_filter.hit_multi_requests         2510                       # Number of requests hitting in the snoop filter with multiple (>1) holders of the requested data.
system.tol2bus.snoop_filter.hit_multi_snoops            0                       # Number of snoops hitting in the snoop filter with multiple (>1) holders of the requested data.
system.tol2bus.snoop_filter.hit_single_requests       717730                       # Number of requests hitting in the snoop filter with a single holder of the requested data.
system.tol2bus.snoop_filter.hit_single_snoops            0                       # Number of snoops hitting in the snoop filter with a single holder of the requested data.
system.tol2bus.snoop_filter.tot_requests      1441155                       # Total number of requests made to the snoop filter.
system.tol2bus.snoop_filter.tot_snoops              0                       # Total number of snoops made to the snoop filter.
system.clk_domain.clock                          1000                       # Clock period in ticks
system.cpu.branchPred.lookups                 6086085                       # Number of BP lookups
system.cpu.branchPred.condPredicted           5250106                       # Number of conditional branches predicted
system.cpu.branchPred.condIncorrect            188543                       # Number of conditional branches incorrect
system.cpu.branchPred.BTBLookups              3802422                       # Number of BTB lookups
system.cpu.branchPred.BTBHits                 3798984                       # Number of BTB hits
system.cpu.branchPred.BTBHitPct             99.909584                       # BTB Hit Percentage
system.cpu.branchPred.RASUsed                  256834                       # Number of times the RAS was used to get a target.
system.cpu.branchPred.RASIncorrect                  1                       # Number of incorrect RAS predictions.
system.cpu.branchPred.indirectLookups          154261                       # Number of indirect predictor lookups.
system.cpu.branchPred.indirectHits                232                       # Number of indirect target hits.
system.cpu.branchPred.indirectMisses           154029                       # Number of indirect misses.
system.cpu.branchPred.indirectMispredicted          200                       # Number of mispredicted indirect branches.
system.cpu.dcache.demand_hits::.cpu.data     46838621                       # number of demand (read+write) hits
system.cpu.dcache.demand_hits::total         46838621                       # number of demand (read+write) hits
system.cpu.dcache.overall_hits::.cpu.data     46863342                       # number of overall hits
system.cpu.dcache.overall_hits::total        46863342                       # number of overall hits
system.cpu.dcache.demand_misses::.cpu.data      1101294                       # number of demand (read+write) misses
system.cpu.dcache.demand_misses::total        1101294                       # number of demand (read+write) misses
system.cpu.dcache.overall_misses::.cpu.data      1101789                       # number of overall misses
system.cpu.dcache.overall_misses::total       1101789                       # number of overall misses
system.cpu.dcache.demand_miss_latency::.cpu.data  14215479000                       # number of demand (read+write) miss cycles
system.cpu.dcache.demand_miss_latency::total  14215479000                       # number of demand (read+write) miss cycles
system.cpu.dcache.overall_miss_latency::.cpu.data  14215479000                       # number of overall miss cycles
system.cpu.dcache.overall_miss_latency::total  14215479000                       # number of overall miss cycles
system.cpu.dcache.demand_accesses::.cpu.data     47939915                       # number of demand (read+write) accesses
system.cpu.dcache.demand_accesses::total     47939915                       # number of demand (read+write) accesses
system.cpu.dcache.overall_accesses::.cpu.data     47965131                       # number of overall (read+write) accesses
system.cpu.dcache.overall_accesses::total     47965131                       # number of overall (read+write) accesses
system.cpu.dcache.demand_miss_rate::.cpu.data     0.022972                       # miss rate for demand accesses
system.cpu.dcache.demand_miss_rate::total     0.022972                       # miss rate for demand accesses
system.cpu.dcache.overall_miss_rate::.cpu.data     0.022971                       # miss rate for overall accesses
system.cpu.dcache.overall_miss_rate::total     0.022971                       # miss rate for overall accesses
system.cpu.dcache.demand_avg_miss_latency::.cpu.data 12907.978251                       # average overall miss latency
system.cpu.dcache.demand_avg_miss_latency::total 12907.978251                       # average overall miss latency
system.cpu.dcache.overall_avg_miss_latency::.cpu.data 12902.179092                       # average overall miss latency
system.cpu.dcache.overall_avg_miss_latency::total 12902.179092                       # average overall miss latency
system.cpu.dcache.blocked_cycles::no_mshrs          421                       # number of cycles access was blocked
system.cpu.dcache.blocked_cycles::no_targets            0                       # number of cycles access was blocked
system.cpu.dcache.blocked::no_mshrs                 5                       # number of cycles access was blocked
system.cpu.dcache.blocked::no_targets               0                       # number of cycles access was blocked
system.cpu.dcache.avg_blocked_cycles::no_mshrs    84.200000                       # average number of cycles each access was blocked
system.cpu.dcache.avg_blocked_cycles::no_targets          nan                       # average number of cycles each access was blocked
system.cpu.dcache.writebacks::.writebacks       688870                       # number of writebacks
system.cpu.dcache.writebacks::total            688870                       # number of writebacks
system.cpu.dcache.demand_mshr_hits::.cpu.data       401047                       # number of demand (read+write) MSHR hits
system.cpu.dcache.demand_mshr_hits::total       401047                       # number of demand (read+write) MSHR hits
system.cpu.dcache.overall_mshr_hits::.cpu.data       401047                       # number of overall MSHR hits
system.cpu.dcache.overall_mshr_hits::total       401047                       # number of overall MSHR hits
system.cpu.dcache.demand_mshr_misses::.cpu.data       700247                       # number of demand (read+write) MSHR misses
system.cpu.dcache.demand_mshr_misses::total       700247                       # number of demand (read+write) MSHR misses
system.cpu.dcache.overall_mshr_misses::.cpu.data       700741                       # number of overall MSHR misses
system.cpu.dcache.overall_mshr_misses::total       700741                       # number of overall MSHR misses
system.cpu.dcache.demand_mshr_miss_latency::.cpu.data   9656199000                       # number of demand (read+write) MSHR miss cycles
system.cpu.dcache.demand_mshr_miss_latency::total   9656199000                       # number of demand (read+write) MSHR miss cycles
system.cpu.dcache.overall_mshr_miss_latency::.cpu.data   9672033000                       # number of overall MSHR miss cycles
system.cpu.dcache.overall_mshr_miss_latency::total   9672033000                       # number of overall MSHR miss cycles
system.cpu.dcache.demand_mshr_miss_rate::.cpu.data     0.014607                       # mshr miss rate for demand accesses
system.cpu.dcache.demand_mshr_miss_rate::total     0.014607                       # mshr miss rate for demand accesses
system.cpu.dcache.overall_mshr_miss_rate::.cpu.data     0.014609                       # mshr miss rate for overall accesses
system.cpu.dcache.overall_mshr_miss_rate::total     0.014609                       # mshr miss rate for overall accesses
system.cpu.dcache.demand_avg_mshr_miss_latency::.cpu.data 13789.704204                       # average overall mshr miss latency
system.cpu.dcache.demand_avg_mshr_miss_latency::total 13789.704204                       # average overall mshr miss latency
system.cpu.dcache.overall_avg_mshr_miss_latency::.cpu.data 13802.578984                       # average overall mshr miss latency
system.cpu.dcache.overall_avg_mshr_miss_latency::total 13802.578984                       # average overall mshr miss latency
system.cpu.dcache.replacements                 696647                       # number of replacements
system.cpu.dcache.ReadReq_hits::.cpu.data     30234855                       # number of ReadReq hits
system.cpu.dcache.ReadReq_hits::total        30234855                       # number of ReadReq hits
system.cpu.dcache.ReadReq_misses::.cpu.data       230639                       # number of ReadReq misses
system.cpu.dcache.ReadReq_misses::total        230639                       # number of ReadReq misses
system.cpu.dcache.ReadReq_miss_latency::.cpu.data   3265574000                       # number of ReadReq miss cycles
system.cpu.dcache.ReadReq_miss_latency::total   3265574000                       # number of ReadReq miss cycles
system.cpu.dcache.ReadReq_accesses::.cpu.data     30465494                       # number of ReadReq accesses(hits+misses)
system.cpu.dcache.ReadReq_accesses::total     30465494                       # number of ReadReq accesses(hits+misses)
system.cpu.dcache.ReadReq_miss_rate::.cpu.data     0.007570                       # miss rate for ReadReq accesses
system.cpu.dcache.ReadReq_miss_rate::total     0.007570                       # miss rate for ReadReq accesses
system.cpu.dcache.ReadReq_avg_miss_latency::.cpu.data 14158.810956                       # average ReadReq miss latency
system.cpu.dcache.ReadReq_avg_miss_latency::total 14158.810956                       # average ReadReq miss latency
system.cpu.dcache.ReadReq_mshr_hits::.cpu.data        12841                       # number of ReadReq MSHR hits
system.cpu.dcache.ReadReq_mshr_hits::total        12841                       # number of ReadReq MSHR hits
system.cpu.dcache.ReadReq_mshr_misses::.cpu.data       217798                       # number of ReadReq MSHR misses
system.cpu.dcache.ReadReq_mshr_misses::total       217798                       # number of ReadReq MSHR misses
system.cpu.dcache.ReadReq_mshr_miss_latency::.cpu.data   2874519500                       # number of ReadReq MSHR miss cycles
system.cpu.dcache.ReadReq_mshr_miss_latency::total   2874519500                       # number of ReadReq MSHR miss cycles
system.cpu.dcache.ReadReq_mshr_miss_rate::.cpu.data     0.007149                       # mshr miss rate for ReadReq accesses
system.cpu.dcache.ReadReq_mshr_miss_rate::total     0.007149                       # mshr miss rate for ReadReq accesses
system.cpu.dcache.ReadReq_avg_mshr_miss_latency::.cpu.data 13198.098697                       # average ReadReq mshr miss latency
system.cpu.dcache.ReadReq_avg_mshr_miss_latency::total 13198.098697                       # average ReadReq mshr miss latency
system.cpu.dcache.WriteReq_hits::.cpu.data     16603597                       # number of WriteReq hits
system.cpu.dcache.WriteReq_hits::total       16603597                       # number of WriteReq hits
system.cpu.dcache.WriteReq_misses::.cpu.data       870652                       # number of WriteReq misses
system.cpu.dcache.WriteReq_misses::total       870652                       # number of WriteReq misses
system.cpu.dcache.WriteReq_miss_latency::.cpu.data  10949809000                       # number of WriteReq miss cycles
system.cpu.dcache.WriteReq_miss_latency::total  10949809000                       # number of WriteReq miss cycles
system.cpu.dcache.WriteReq_accesses::.cpu.data     17474249                       # number of WriteReq accesses(hits+misses)
system.cpu.dcache.WriteReq_accesses::total     17474249                       # number of WriteReq accesses(hits+misses)
system.cpu.dcache.WriteReq_miss_rate::.cpu.data     0.049825                       # miss rate for WriteReq accesses
system.cpu.dcache.WriteReq_miss_rate::total     0.049825                       # miss rate for WriteReq accesses
system.cpu.dcache.WriteReq_avg_miss_latency::.cpu.data 12576.562163                       # average WriteReq miss latency
system.cpu.dcache.WriteReq_avg_miss_latency::total 12576.562163                       # average WriteReq miss latency
system.cpu.dcache.WriteReq_mshr_hits::.cpu.data       388206                       # number of WriteReq MSHR hits
system.cpu.dcache.WriteReq_mshr_hits::total       388206                       # number of WriteReq MSHR hits
system.cpu.dcache.WriteReq_mshr_misses::.cpu.data       482446                       # number of WriteReq MSHR misses
system.cpu.dcache.WriteReq_mshr_misses::total       482446                       # number of WriteReq MSHR misses
system.cpu.dcache.WriteReq_mshr_miss_latency::.cpu.data   6781586500                       # number of WriteReq MSHR miss cycles
system.cpu.dcache.WriteReq_mshr_miss_latency::total   6781586500                       # number of WriteReq MSHR miss cycles
system.cpu.dcache.WriteReq_mshr_miss_rate::.cpu.data     0.027609                       # mshr miss rate for WriteReq accesses
system.cpu.dcache.WriteReq_mshr_miss_rate::total     0.027609                       # mshr miss rate for WriteReq accesses
system.cpu.dcache.WriteReq_avg_mshr_miss_latency::.cpu.data 14056.674737                       # average WriteReq mshr miss latency
system.cpu.dcache.WriteReq_avg_mshr_miss_latency::total 14056.674737                       # average WriteReq mshr miss latency
system.cpu.dcache.SoftPFReq_hits::.cpu.data        24721                       # number of SoftPFReq hits
system.cpu.dcache.SoftPFReq_hits::total         24721                       # number of SoftPFReq hits
system.cpu.dcache.SoftPFReq_misses::.cpu.data          495                       # number of SoftPFReq misses
system.cpu.dcache.SoftPFReq_misses::total          495                       # number of SoftPFReq misses
system.cpu.dcache.SoftPFReq_accesses::.cpu.data        25216                       # number of SoftPFReq accesses(hits+misses)
system.cpu.dcache.SoftPFReq_accesses::total        25216                       # number of SoftPFReq accesses(hits+misses)
system.cpu.dcache.SoftPFReq_miss_rate::.cpu.data     0.019630                       # miss rate for SoftPFReq accesses
system.cpu.dcache.SoftPFReq_miss_rate::total     0.019630                       # miss rate for SoftPFReq accesses
system.cpu.dcache.SoftPFReq_mshr_misses::.cpu.data          494                       # number of SoftPFReq MSHR misses
system.cpu.dcache.SoftPFReq_mshr_misses::total          494                       # number of SoftPFReq MSHR misses
system.cpu.dcache.SoftPFReq_mshr_miss_latency::.cpu.data     15834000                       # number of SoftPFReq MSHR miss cycles
system.cpu.dcache.SoftPFReq_mshr_miss_latency::total     15834000                       # number of SoftPFReq MSHR miss cycles
system.cpu.dcache.SoftPFReq_mshr_miss_rate::.cpu.data     0.019591                       # mshr miss rate for SoftPFReq accesses
system.cpu.dcache.SoftPFReq_mshr_miss_rate::total     0.019591                       # mshr miss rate for SoftPFReq accesses
system.cpu.dcache.SoftPFReq_avg_mshr_miss_latency::.cpu.data 32052.631579                       # average SoftPFReq mshr miss latency
system.cpu.dcache.SoftPFReq_avg_mshr_miss_latency::total 32052.631579                       # average SoftPFReq mshr miss latency
system.cpu.dcache.WriteLineReq_hits::.cpu.data          169                       # number of WriteLineReq hits
system.cpu.dcache.WriteLineReq_hits::total          169                       # number of WriteLineReq hits
system.cpu.dcache.WriteLineReq_misses::.cpu.data            3                       # number of WriteLineReq misses
system.cpu.dcache.WriteLineReq_misses::total            3                       # number of WriteLineReq misses
system.cpu.dcache.WriteLineReq_miss_latency::.cpu.data        96000                       # number of WriteLineReq miss cycles
system.cpu.dcache.WriteLineReq_miss_latency::total        96000                       # number of WriteLineReq miss cycles
system.cpu.dcache.WriteLineReq_accesses::.cpu.data          172                       # number of WriteLineReq accesses(hits+misses)
system.cpu.dcache.WriteLineReq_accesses::total          172                       # number of WriteLineReq accesses(hits+misses)
system.cpu.dcache.WriteLineReq_miss_rate::.cpu.data     0.017442                       # miss rate for WriteLineReq accesses
system.cpu.dcache.WriteLineReq_miss_rate::total     0.017442                       # miss rate for WriteLineReq accesses
system.cpu.dcache.WriteLineReq_avg_miss_latency::.cpu.data        32000                       # average WriteLineReq miss latency
system.cpu.dcache.WriteLineReq_avg_miss_latency::total        32000                       # average WriteLineReq miss latency
system.cpu.dcache.WriteLineReq_mshr_misses::.cpu.data            3                       # number of WriteLineReq MSHR misses
system.cpu.dcache.WriteLineReq_mshr_misses::total            3                       # number of WriteLineReq MSHR misses
system.cpu.dcache.WriteLineReq_mshr_miss_latency::.cpu.data        93000                       # number of WriteLineReq MSHR miss cycles
system.cpu.dcache.WriteLineReq_mshr_miss_latency::total        93000                       # number of WriteLineReq MSHR miss cycles
system.cpu.dcache.WriteLineReq_mshr_miss_rate::.cpu.data     0.017442                       # mshr miss rate for WriteLineReq accesses
system.cpu.dcache.WriteLineReq_mshr_miss_rate::total     0.017442                       # mshr miss rate for WriteLineReq accesses
system.cpu.dcache.WriteLineReq_avg_mshr_miss_latency::.cpu.data        31000                       # average WriteLineReq mshr miss latency
system.cpu.dcache.WriteLineReq_avg_mshr_miss_latency::total        31000                       # average WriteLineReq mshr miss latency
system.cpu.dcache.LoadLockedReq_hits::.cpu.data          164                       # number of LoadLockedReq hits
system.cpu.dcache.LoadLockedReq_hits::total          164                       # number of LoadLockedReq hits
system.cpu.dcache.LoadLockedReq_misses::.cpu.data            2                       # number of LoadLockedReq misses
system.cpu.dcache.LoadLockedReq_misses::total            2                       # number of LoadLockedReq misses
system.cpu.dcache.LoadLockedReq_miss_latency::.cpu.data       158000                       # number of LoadLockedReq miss cycles
system.cpu.dcache.LoadLockedReq_miss_latency::total       158000                       # number of LoadLockedReq miss cycles
system.cpu.dcache.LoadLockedReq_accesses::.cpu.data          166                       # number of LoadLockedReq accesses(hits+misses)
system.cpu.dcache.LoadLockedReq_accesses::total          166                       # number of LoadLockedReq accesses(hits+misses)
system.cpu.dcache.LoadLockedReq_miss_rate::.cpu.data     0.012048                       # miss rate for LoadLockedReq accesses
system.cpu.dcache.LoadLockedReq_miss_rate::total     0.012048                       # miss rate for LoadLockedReq accesses
system.cpu.dcache.LoadLockedReq_avg_miss_latency::.cpu.data        79000                       # average LoadLockedReq miss latency
system.cpu.dcache.LoadLockedReq_avg_miss_latency::total        79000                       # average LoadLockedReq miss latency
system.cpu.dcache.LoadLockedReq_mshr_misses::.cpu.data            2                       # number of LoadLockedReq MSHR misses
system.cpu.dcache.LoadLockedReq_mshr_misses::total            2                       # number of LoadLockedReq MSHR misses
system.cpu.dcache.LoadLockedReq_mshr_miss_latency::.cpu.data       156000                       # number of LoadLockedReq MSHR miss cycles
system.cpu.dcache.LoadLockedReq_mshr_miss_latency::total       156000                       # number of LoadLockedReq MSHR miss cycles
system.cpu.dcache.LoadLockedReq_mshr_miss_rate::.cpu.data     0.012048                       # mshr miss rate for LoadLockedReq accesses
system.cpu.dcache.LoadLockedReq_mshr_miss_rate::total     0.012048                       # mshr miss rate for LoadLockedReq accesses
system.cpu.dcache.LoadLockedReq_avg_mshr_miss_latency::.cpu.data        78000                       # average LoadLockedReq mshr miss latency
system.cpu.dcache.LoadLockedReq_avg_mshr_miss_latency::total        78000                       # average LoadLockedReq mshr miss latency
system.cpu.dcache.StoreCondReq_hits::.cpu.data          166                       # number of StoreCondReq hits
system.cpu.dcache.StoreCondReq_hits::total          166                       # number of StoreCondReq hits
system.cpu.dcache.StoreCondReq_accesses::.cpu.data          166                       # number of StoreCondReq accesses(hits+misses)
system.cpu.dcache.StoreCondReq_accesses::total          166                       # number of StoreCondReq accesses(hits+misses)
system.cpu.dcache.power_state.pwrStateResidencyTicks::UNDEFINED  75890060500                       # Cumulative time (in ticks) in various power states
system.cpu.dcache.tags.tagsinuse          4048.607865                       # Cycle average of tags in use
system.cpu.dcache.tags.total_refs            47564415                       # Total number of references to valid blocks.
system.cpu.dcache.tags.sampled_refs            700743                       # Sample count of references to valid blocks.
system.cpu.dcache.tags.avg_refs             67.877118                       # Average number of references to valid blocks.
system.cpu.dcache.tags.warmup_cycle            249500                       # Cycle when the warmup percentage was hit.
system.cpu.dcache.tags.occ_blocks::.cpu.data  4048.607865                       # Average occupied blocks per requestor
system.cpu.dcache.tags.occ_percent::.cpu.data     0.988430                       # Average percentage of cache occupancy
system.cpu.dcache.tags.occ_percent::total     0.988430                       # Average percentage of cache occupancy
system.cpu.dcache.tags.occ_task_id_blocks::1024         4096                       # Occupied blocks per task id
system.cpu.dcache.tags.age_task_id_blocks_1024::0           49                       # Occupied blocks per task id
system.cpu.dcache.tags.age_task_id_blocks_1024::1          398                       # Occupied blocks per task id
system.cpu.dcache.tags.age_task_id_blocks_1024::2         1531                       # Occupied blocks per task id
system.cpu.dcache.tags.age_task_id_blocks_1024::3         1517                       # Occupied blocks per task id
system.cpu.dcache.tags.age_task_id_blocks_1024::4          601                       # Occupied blocks per task id
system.cpu.dcache.tags.occ_task_id_percent::1024            1                       # Percentage of cache occupancy per task id
system.cpu.dcache.tags.tag_accesses          48666206                       # Number of tag accesses
system.cpu.dcache.tags.data_accesses         48666206                       # Number of data accesses
system.cpu.dcache.tags.power_state.pwrStateResidencyTicks::UNDEFINED  75890060500                       # Cumulative time (in ticks) in various power states
system.cpu.dtb.instHits                             0                       # ITB inst hits
system.cpu.dtb.instMisses                           0                       # ITB inst misses
system.cpu.dtb.readHits                             0                       # DTB read hits
system.cpu.dtb.readMisses                           0                       # DTB read misses
system.cpu.dtb.writeHits                            0                       # DTB write hits
system.cpu.dtb.writeMisses                          0                       # DTB write misses
system.cpu.dtb.inserts                              0                       # Number of times an entry is inserted into the TLB
system.cpu.dtb.flushTlb                             0                       # Number of times complete TLB was flushed
system.cpu.dtb.flushTlbMva                          0                       # Number of times TLB was flushed by MVA
system.cpu.dtb.flushTlbMvaAsid                      0                       # Number of times TLB was flushed by MVA & ASID
system.cpu.dtb.flushTlbAsid                         0                       # Number of times TLB was flushed by ASID
system.cpu.dtb.flushedEntries                       0                       # Number of entries that have been flushed from TLB
system.cpu.dtb.alignFaults                          0                       # Number of TLB faults due to alignment restrictions
system.cpu.dtb.prefetchFaults                       0                       # Number of TLB faults due to prefetch
system.cpu.dtb.domainFaults                         0                       # Number of TLB faults due to domain restrictions
system.cpu.dtb.permsFaults                          0                       # Number of TLB faults due to permissions restrictions
system.cpu.dtb.readAccesses                         0                       # DTB read accesses
system.cpu.dtb.writeAccesses                        0                       # DTB write accesses
system.cpu.dtb.instAccesses                         0                       # ITB inst accesses
system.cpu.dtb.hits                                 0                       # Total TLB (inst and data) hits
system.cpu.dtb.misses                               0                       # Total TLB (inst and data) misses
system.cpu.dtb.accesses                             0                       # Total TLB (inst and data) accesses
system.cpu.dtb.stage2_mmu.stage2_tlb.instHits            0                       # ITB inst hits
system.cpu.dtb.stage2_mmu.stage2_tlb.instMisses            0                       # ITB inst misses
system.cpu.dtb.stage2_mmu.stage2_tlb.readHits            0                       # DTB read hits
system.cpu.dtb.stage2_mmu.stage2_tlb.readMisses            0                       # DTB read misses
system.cpu.dtb.stage2_mmu.stage2_tlb.writeHits            0                       # DTB write hits
system.cpu.dtb.stage2_mmu.stage2_tlb.writeMisses            0                       # DTB write misses
system.cpu.dtb.stage2_mmu.stage2_tlb.inserts            0                       # Number of times an entry is inserted into the TLB
system.cpu.dtb.stage2_mmu.stage2_tlb.flushTlb            0                       # Number of times complete TLB was flushed
system.cpu.dtb.stage2_mmu.stage2_tlb.flushTlbMva            0                       # Number of times TLB was flushed by MVA
system.cpu.dtb.stage2_mmu.stage2_tlb.flushTlbMvaAsid            0                       # Number of times TLB was flushed by MVA & ASID
system.cpu.dtb.stage2_mmu.stage2_tlb.flushTlbAsid            0                       # Number of times TLB was flushed by ASID
system.cpu.dtb.stage2_mmu.stage2_tlb.flushedEntries            0                       # Number of entries that have been flushed from TLB
system.cpu.dtb.stage2_mmu.stage2_tlb.alignFaults            0                       # Number of TLB faults due to alignment restrictions
system.cpu.dtb.stage2_mmu.stage2_tlb.prefetchFaults            0                       # Number of TLB faults due to prefetch
system.cpu.dtb.stage2_mmu.stage2_tlb.domainFaults            0                       # Number of TLB faults due to domain restrictions
system.cpu.dtb.stage2_mmu.stage2_tlb.permsFaults            0                       # Number of TLB faults due to permissions restrictions
system.cpu.dtb.stage2_mmu.stage2_tlb.readAccesses            0                       # DTB read accesses
system.cpu.dtb.stage2_mmu.stage2_tlb.writeAccesses            0                       # DTB write accesses
system.cpu.dtb.stage2_mmu.stage2_tlb.instAccesses            0                       # ITB inst accesses
system.cpu.dtb.stage2_mmu.stage2_tlb.hits            0                       # Total TLB (inst and data) hits
system.cpu.dtb.stage2_mmu.stage2_tlb.misses            0                       # Total TLB (inst and data) misses
system.cpu.dtb.stage2_mmu.stage2_tlb.accesses            0                       # Total TLB (inst and data) accesses
system.cpu.dtb.stage2_mmu.stage2_tlb.walker.walks            0                       # Table walker walks requested
system.cpu.dtb.stage2_mmu.stage2_tlb.walker.requestOrigin_Requested::Data            0                       # Table walker requests started/completed, data/inst
system.cpu.dtb.stage2_mmu.stage2_tlb.walker.requestOrigin_Requested::Inst            0                       # Table walker requests started/completed, data/inst
system.cpu.dtb.stage2_mmu.stage2_tlb.walker.requestOrigin_Requested::total            0                       # Table walker requests started/completed, data/inst
system.cpu.dtb.stage2_mmu.stage2_tlb.walker.requestOrigin_Completed::Data            0                       # Table walker requests started/completed, data/inst
system.cpu.dtb.stage2_mmu.stage2_tlb.walker.requestOrigin_Completed::Inst            0                       # Table walker requests started/completed, data/inst
system.cpu.dtb.stage2_mmu.stage2_tlb.walker.requestOrigin_Completed::total            0                       # Table walker requests started/completed, data/inst
system.cpu.dtb.stage2_mmu.stage2_tlb.walker.requestOrigin::total            0                       # Table walker requests started/completed, data/inst
system.cpu.dtb.stage2_mmu.stage2_tlb.walker.power_state.pwrStateResidencyTicks::UNDEFINED  75890060500                       # Cumulative time (in ticks) in various power states
system.cpu.dtb.walker.walks                         0                       # Table walker walks requested
system.cpu.dtb.walker.requestOrigin_Requested::Data            0                       # Table walker requests started/completed, data/inst
system.cpu.dtb.walker.requestOrigin_Requested::Inst            0                       # Table walker requests started/completed, data/inst
system.cpu.dtb.walker.requestOrigin_Requested::total            0                       # Table walker requests started/completed, data/inst
system.cpu.dtb.walker.requestOrigin_Completed::Data            0                       # Table walker requests started/completed, data/inst
system.cpu.dtb.walker.requestOrigin_Completed::Inst            0                       # Table walker requests started/completed, data/inst
system.cpu.dtb.walker.requestOrigin_Completed::total            0                       # Table walker requests started/completed, data/inst
system.cpu.dtb.walker.requestOrigin::total            0                       # Table walker requests started/completed, data/inst
system.cpu.dtb.walker.power_state.pwrStateResidencyTicks::UNDEFINED  75890060500                       # Cumulative time (in ticks) in various power states
system.cpu.fetch2.intInstructions            37712672                       # Number of integer instructions successfully decoded
system.cpu.fetch2.fpInstructions                    0                       # Number of floating point instructions successfully decoded
system.cpu.fetch2.vecInstructions                   0                       # Number of SIMD instructions successfully decoded
system.cpu.fetch2.loadInstructions           17237494                       # Number of memory load instructions successfully decoded
system.cpu.fetch2.storeInstructions          14149116                       # Number of memory store instructions successfully decoded
system.cpu.fetch2.amoInstructions                   0                       # Number of memory atomic instructions successfully decoded
system.cpu.icache.demand_hits::.cpu.inst     26205206                       # number of demand (read+write) hits
system.cpu.icache.demand_hits::total         26205206                       # number of demand (read+write) hits
system.cpu.icache.overall_hits::.cpu.inst     26205206                       # number of overall hits
system.cpu.icache.overall_hits::total        26205206                       # number of overall hits
system.cpu.icache.demand_misses::.cpu.inst        22686                       # number of demand (read+write) misses
system.cpu.icache.demand_misses::total          22686                       # number of demand (read+write) misses
system.cpu.icache.overall_misses::.cpu.inst        22686                       # number of overall misses
system.cpu.icache.overall_misses::total         22686                       # number of overall misses
system.cpu.icache.demand_miss_latency::.cpu.inst    503587500                       # number of demand (read+write) miss cycles
system.cpu.icache.demand_miss_latency::total    503587500                       # number of demand (read+write) miss cycles
system.cpu.icache.overall_miss_latency::.cpu.inst    503587500                       # number of overall miss cycles
system.cpu.icache.overall_miss_latency::total    503587500                       # number of overall miss cycles
system.cpu.icache.demand_accesses::.cpu.inst     26227892                       # number of demand (read+write) accesses
system.cpu.icache.demand_accesses::total     26227892                       # number of demand (read+write) accesses
system.cpu.icache.overall_accesses::.cpu.inst     26227892                       # number of overall (read+write) accesses
system.cpu.icache.overall_accesses::total     26227892                       # number of overall (read+write) accesses
system.cpu.icache.demand_miss_rate::.cpu.inst     0.000865                       # miss rate for demand accesses
system.cpu.icache.demand_miss_rate::total     0.000865                       # miss rate for demand accesses
system.cpu.icache.overall_miss_rate::.cpu.inst     0.000865                       # miss rate for overall accesses
system.cpu.icache.overall_miss_rate::total     0.000865                       # miss rate for overall accesses
system.cpu.icache.demand_avg_miss_latency::.cpu.inst 22198.161862                       # average overall miss latency
system.cpu.icache.demand_avg_miss_latency::total 22198.161862                       # average overall miss latency
system.cpu.icache.overall_avg_miss_latency::.cpu.inst 22198.161862                       # average overall miss latency
system.cpu.icache.overall_avg_miss_latency::total 22198.161862                       # average overall miss latency
system.cpu.icache.blocked_cycles::no_mshrs            0                       # number of cycles access was blocked
system.cpu.icache.blocked_cycles::no_targets            0                       # number of cycles access was blocked
system.cpu.icache.blocked::no_mshrs                 0                       # number of cycles access was blocked
system.cpu.icache.blocked::no_targets               0                       # number of cycles access was blocked
system.cpu.icache.avg_blocked_cycles::no_mshrs          nan                       # average number of cycles each access was blocked
system.cpu.icache.avg_blocked_cycles::no_targets          nan                       # average number of cycles each access was blocked
system.cpu.icache.writebacks::.writebacks        21079                       # number of writebacks
system.cpu.icache.writebacks::total             21079                       # number of writebacks
system.cpu.icache.demand_mshr_misses::.cpu.inst        22686                       # number of demand (read+write) MSHR misses
system.cpu.icache.demand_mshr_misses::total        22686                       # number of demand (read+write) MSHR misses
system.cpu.icache.overall_mshr_misses::.cpu.inst        22686                       # number of overall MSHR misses
system.cpu.icache.overall_mshr_misses::total        22686                       # number of overall MSHR misses
system.cpu.icache.demand_mshr_miss_latency::.cpu.inst    480901500                       # number of demand (read+write) MSHR miss cycles
system.cpu.icache.demand_mshr_miss_latency::total    480901500                       # number of demand (read+write) MSHR miss cycles
system.cpu.icache.overall_mshr_miss_latency::.cpu.inst    480901500                       # number of overall MSHR miss cycles
system.cpu.icache.overall_mshr_miss_latency::total    480901500                       # number of overall MSHR miss cycles
system.cpu.icache.demand_mshr_miss_rate::.cpu.inst     0.000865                       # mshr miss rate for demand accesses
system.cpu.icache.demand_mshr_miss_rate::total     0.000865                       # mshr miss rate for demand accesses
system.cpu.icache.overall_mshr_miss_rate::.cpu.inst     0.000865                       # mshr miss rate for overall accesses
system.cpu.icache.overall_mshr_miss_rate::total     0.000865                       # mshr miss rate for overall accesses
system.cpu.icache.demand_avg_mshr_miss_latency::.cpu.inst 21198.161862                       # average overall mshr miss latency
system.cpu.icache.demand_avg_mshr_miss_latency::total 21198.161862                       # average overall mshr miss latency
system.cpu.icache.overall_avg_mshr_miss_latency::.cpu.inst 21198.161862                       # average overall mshr miss latency
system.cpu.icache.overall_avg_mshr_miss_latency::total 21198.161862                       # average overall mshr miss latency
system.cpu.icache.replacements                  21079                       # number of replacements
system.cpu.icache.ReadReq_hits::.cpu.inst     26205206                       # number of ReadReq hits
system.cpu.icache.ReadReq_hits::total        26205206                       # number of ReadReq hits
system.cpu.icache.ReadReq_misses::.cpu.inst        22686                       # number of ReadReq misses
system.cpu.icache.ReadReq_misses::total         22686                       # number of ReadReq misses
system.cpu.icache.ReadReq_miss_latency::.cpu.inst    503587500                       # number of ReadReq miss cycles
system.cpu.icache.ReadReq_miss_latency::total    503587500                       # number of ReadReq miss cycles
system.cpu.icache.ReadReq_accesses::.cpu.inst     26227892                       # number of ReadReq accesses(hits+misses)
system.cpu.icache.ReadReq_accesses::total     26227892                       # number of ReadReq accesses(hits+misses)
system.cpu.icache.ReadReq_miss_rate::.cpu.inst     0.000865                       # miss rate for ReadReq accesses
system.cpu.icache.ReadReq_miss_rate::total     0.000865                       # miss rate for ReadReq accesses
system.cpu.icache.ReadReq_avg_miss_latency::.cpu.inst 22198.161862                       # average ReadReq miss latency
system.cpu.icache.ReadReq_avg_miss_latency::total 22198.161862                       # average ReadReq miss latency
system.cpu.icache.ReadReq_mshr_misses::.cpu.inst        22686                       # number of ReadReq MSHR misses
system.cpu.icache.ReadReq_mshr_misses::total        22686                       # number of ReadReq MSHR misses
system.cpu.icache.ReadReq_mshr_miss_latency::.cpu.inst    480901500                       # number of ReadReq MSHR miss cycles
system.cpu.icache.ReadReq_mshr_miss_latency::total    480901500                       # number of ReadReq MSHR miss cycles
system.cpu.icache.ReadReq_mshr_miss_rate::.cpu.inst     0.000865                       # mshr miss rate for ReadReq accesses
system.cpu.icache.ReadReq_mshr_miss_rate::total     0.000865                       # mshr miss rate for ReadReq accesses
system.cpu.icache.ReadReq_avg_mshr_miss_latency::.cpu.inst 21198.161862                       # average ReadReq mshr miss latency
system.cpu.icache.ReadReq_avg_mshr_miss_latency::total 21198.161862                       # average ReadReq mshr miss latency
system.cpu.icache.power_state.pwrStateResidencyTicks::UNDEFINED  75890060500                       # Cumulative time (in ticks) in various power states
system.cpu.icache.tags.tagsinuse          1601.994519                       # Cycle average of tags in use
system.cpu.icache.tags.total_refs            26227892                       # Total number of references to valid blocks.
system.cpu.icache.tags.sampled_refs             22686                       # Sample count of references to valid blocks.
system.cpu.icache.tags.avg_refs           1156.126774                       # Average number of references to valid blocks.
system.cpu.icache.tags.warmup_cycle             87500                       # Cycle when the warmup percentage was hit.
system.cpu.icache.tags.occ_blocks::.cpu.inst  1601.994519                       # Average occupied blocks per requestor
system.cpu.icache.tags.occ_percent::.cpu.inst     0.782224                       # Average percentage of cache occupancy
system.cpu.icache.tags.occ_percent::total     0.782224                       # Average percentage of cache occupancy
system.cpu.icache.tags.occ_task_id_blocks::1024         1607                       # Occupied blocks per task id
system.cpu.icache.tags.age_task_id_blocks_1024::2           21                       # Occupied blocks per task id
system.cpu.icache.tags.age_task_id_blocks_1024::3           20                       # Occupied blocks per task id
system.cpu.icache.tags.age_task_id_blocks_1024::4         1566                       # Occupied blocks per task id
system.cpu.icache.tags.occ_task_id_percent::1024     0.784668                       # Percentage of cache occupancy per task id
system.cpu.icache.tags.tag_accesses          26250578                       # Number of tag accesses
system.cpu.icache.tags.data_accesses         26250578                       # Number of data accesses
system.cpu.icache.tags.power_state.pwrStateResidencyTicks::UNDEFINED  75890060500                       # Cumulative time (in ticks) in various power states
system.cpu.itb.instHits                             0                       # ITB inst hits
system.cpu.itb.instMisses                           0                       # ITB inst misses
system.cpu.itb.readHits                             0                       # DTB read hits
system.cpu.itb.readMisses                           0                       # DTB read misses
system.cpu.itb.writeHits                            0                       # DTB write hits
system.cpu.itb.writeMisses                          0                       # DTB write misses
system.cpu.itb.inserts                              0                       # Number of times an entry is inserted into the TLB
system.cpu.itb.flushTlb                             0                       # Number of times complete TLB was flushed
system.cpu.itb.flushTlbMva                          0                       # Number of times TLB was flushed by MVA
system.cpu.itb.flushTlbMvaAsid                      0                       # Number of times TLB was flushed by MVA & ASID
system.cpu.itb.flushTlbAsid                         0                       # Number of times TLB was flushed by ASID
system.cpu.itb.flushedEntries                       0                       # Number of entries that have been flushed from TLB
system.cpu.itb.alignFaults                          0                       # Number of TLB faults due to alignment restrictions
system.cpu.itb.prefetchFaults                       0                       # Number of TLB faults due to prefetch
system.cpu.itb.domainFaults                         0                       # Number of TLB faults due to domain restrictions
system.cpu.itb.permsFaults                          0                       # Number of TLB faults due to permissions restrictions
system.cpu.itb.readAccesses                         0                       # DTB read accesses
system.cpu.itb.writeAccesses                        0                       # DTB write accesses
system.cpu.itb.instAccesses                         0                       # ITB inst accesses
system.cpu.itb.hits                                 0                       # Total TLB (inst and data) hits
system.cpu.itb.misses                               0                       # Total TLB (inst and data) misses
system.cpu.itb.accesses                             0                       # Total TLB (inst and data) accesses
system.cpu.itb.stage2_mmu.stage2_tlb.instHits            0                       # ITB inst hits
system.cpu.itb.stage2_mmu.stage2_tlb.instMisses            0                       # ITB inst misses
system.cpu.itb.stage2_mmu.stage2_tlb.readHits            0                       # DTB read hits
system.cpu.itb.stage2_mmu.stage2_tlb.readMisses            0                       # DTB read misses
system.cpu.itb.stage2_mmu.stage2_tlb.writeHits            0                       # DTB write hits
system.cpu.itb.stage2_mmu.stage2_tlb.writeMisses            0                       # DTB write misses
system.cpu.itb.stage2_mmu.stage2_tlb.inserts            0                       # Number of times an entry is inserted into the TLB
system.cpu.itb.stage2_mmu.stage2_tlb.flushTlb            0                       # Number of times complete TLB was flushed
system.cpu.itb.stage2_mmu.stage2_tlb.flushTlbMva            0                       # Number of times TLB was flushed by MVA
system.cpu.itb.stage2_mmu.stage2_tlb.flushTlbMvaAsid            0                       # Number of times TLB was flushed by MVA & ASID
system.cpu.itb.stage2_mmu.stage2_tlb.flushTlbAsid            0                       # Number of times TLB was flushed by ASID
system.cpu.itb.stage2_mmu.stage2_tlb.flushedEntries            0                       # Number of entries that have been flushed from TLB
system.cpu.itb.stage2_mmu.stage2_tlb.alignFaults            0                       # Number of TLB faults due to alignment restrictions
system.cpu.itb.stage2_mmu.stage2_tlb.prefetchFaults            0                       # Number of TLB faults due to prefetch
system.cpu.itb.stage2_mmu.stage2_tlb.domainFaults            0                       # Number of TLB faults due to domain restrictions
system.cpu.itb.stage2_mmu.stage2_tlb.permsFaults            0                       # Number of TLB faults due to permissions restrictions
system.cpu.itb.stage2_mmu.stage2_tlb.readAccesses            0                       # DTB read accesses
system.cpu.itb.stage2_mmu.stage2_tlb.writeAccesses            0                       # DTB write accesses
system.cpu.itb.stage2_mmu.stage2_tlb.instAccesses            0                       # ITB inst accesses
system.cpu.itb.stage2_mmu.stage2_tlb.hits            0                       # Total TLB (inst and data) hits
system.cpu.itb.stage2_mmu.stage2_tlb.misses            0                       # Total TLB (inst and data) misses
system.cpu.itb.stage2_mmu.stage2_tlb.accesses            0                       # Total TLB (inst and data) accesses
system.cpu.itb.stage2_mmu.stage2_tlb.walker.walks            0                       # Table walker walks requested
system.cpu.itb.stage2_mmu.stage2_tlb.walker.requestOrigin_Requested::Data            0                       # Table walker requests started/completed, data/inst
system.cpu.itb.stage2_mmu.stage2_tlb.walker.requestOrigin_Requested::Inst            0                       # Table walker requests started/completed, data/inst
system.cpu.itb.stage2_mmu.stage2_tlb.walker.requestOrigin_Requested::total            0                       # Table walker requests started/completed, data/inst
system.cpu.itb.stage2_mmu.stage2_tlb.walker.requestOrigin_Completed::Data            0                       # Table walker requests started/completed, data/inst
system.cpu.itb.stage2_mmu.stage2_tlb.walker.requestOrigin_Completed::Inst            0                       # Table walker requests started/completed, data/inst
system.cpu.itb.stage2_mmu.stage2_tlb.walker.requestOrigin_Completed::total            0                       # Table walker requests started/completed, data/inst
system.cpu.itb.stage2_mmu.stage2_tlb.walker.requestOrigin::total            0                       # Table walker requests started/completed, data/inst
system.cpu.itb.stage2_mmu.stage2_tlb.walker.power_state.pwrStateResidencyTicks::UNDEFINED  75890060500                       # Cumulative time (in ticks) in various power states
system.cpu.itb.walker.walks                         0                       # Table walker walks requested
system.cpu.itb.walker.requestOrigin_Requested::Data            0                       # Table walker requests started/completed, data/inst
system.cpu.itb.walker.requestOrigin_Requested::Inst            0                       # Table walker requests started/completed, data/inst
system.cpu.itb.walker.requestOrigin_Requested::total            0                       # Table walker requests started/completed, data/inst
system.cpu.itb.walker.requestOrigin_Completed::Data            0                       # Table walker requests started/completed, data/inst
system.cpu.itb.walker.requestOrigin_Completed::Inst            0                       # Table walker requests started/completed, data/inst
system.cpu.itb.walker.requestOrigin_Completed::total            0                       # Table walker requests started/completed, data/inst
system.cpu.itb.walker.requestOrigin::total            0                       # Table walker requests started/completed, data/inst
system.cpu.itb.walker.power_state.pwrStateResidencyTicks::UNDEFINED  75890060500                       # Cumulative time (in ticks) in various power states
system.cpu.power_state.pwrStateResidencyTicks::ON  75890060500                       # Cumulative time (in ticks) in various power states
system.cpu.thread0.numInsts                 100000000                       # Number of Instructions committed
system.cpu.thread0.numOps                   116826593                       # Number of Ops committed
system.cpu.thread0.numMemRefs                       0                       # Number of Memory References
system.cpu_clk_domain.clock                       500                       # Clock period in ticks
system.cpu_voltage_domain.voltage                   1                       # Voltage in Volts
system.l2.demand_hits::.cpu.inst                19434                       # number of demand (read+write) hits
system.l2.demand_hits::.cpu.data               683750                       # number of demand (read+write) hits
system.l2.demand_hits::total                   703184                       # number of demand (read+write) hits
system.l2.overall_hits::.cpu.inst               19434                       # number of overall hits
system.l2.overall_hits::.cpu.data              683750                       # number of overall hits
system.l2.overall_hits::total                  703184                       # number of overall hits
system.l2.demand_misses::.cpu.inst               3252                       # number of demand (read+write) misses
system.l2.demand_misses::.cpu.data              16946                       # number of demand (read+write) misses
system.l2.demand_misses::total                  20198                       # number of demand (read+write) misses
system.l2.overall_misses::.cpu.inst              3252                       # number of overall misses
system.l2.overall_misses::.cpu.data             16946                       # number of overall misses
system.l2.overall_misses::total                 20198                       # number of overall misses
system.l2.demand_miss_latency::.cpu.inst    242127000                       # number of demand (read+write) miss cycles
system.l2.demand_miss_latency::.cpu.data   1268587000                       # number of demand (read+write) miss cycles
system.l2.demand_miss_latency::total       1510714000                       # number of demand (read+write) miss cycles
system.l2.overall_miss_latency::.cpu.inst    242127000                       # number of overall miss cycles
system.l2.overall_miss_latency::.cpu.data   1268587000                       # number of overall miss cycles
system.l2.overall_miss_latency::total      1510714000                       # number of overall miss cycles
system.l2.demand_accesses::.cpu.inst            22686                       # number of demand (read+write) accesses
system.l2.demand_accesses::.cpu.data           700696                       # number of demand (read+write) accesses
system.l2.demand_accesses::total               723382                       # number of demand (read+write) accesses
system.l2.overall_accesses::.cpu.inst           22686                       # number of overall (read+write) accesses
system.l2.overall_accesses::.cpu.data          700696                       # number of overall (read+write) accesses
system.l2.overall_accesses::total              723382                       # number of overall (read+write) accesses
system.l2.demand_miss_rate::.cpu.inst        0.143348                       # miss rate for demand accesses
system.l2.demand_miss_rate::.cpu.data        0.024185                       # miss rate for demand accesses
system.l2.demand_miss_rate::total            0.027922                       # miss rate for demand accesses
system.l2.overall_miss_rate::.cpu.inst       0.143348                       # miss rate for overall accesses
system.l2.overall_miss_rate::.cpu.data       0.024185                       # miss rate for overall accesses
system.l2.overall_miss_rate::total           0.027922                       # miss rate for overall accesses
system.l2.demand_avg_miss_latency::.cpu.inst 74454.797048                       # average overall miss latency
system.l2.demand_avg_miss_latency::.cpu.data 74860.557064                       # average overall miss latency
system.l2.demand_avg_miss_latency::total 74795.227250                       # average overall miss latency
system.l2.overall_avg_miss_latency::.cpu.inst 74454.797048                       # average overall miss latency
system.l2.overall_avg_miss_latency::.cpu.data 74860.557064                       # average overall miss latency
system.l2.overall_avg_miss_latency::total 74795.227250                       # average overall miss latency
system.l2.blocked_cycles::no_mshrs                  0                       # number of cycles access was blocked
system.l2.blocked_cycles::no_targets                0                       # number of cycles access was blocked
system.l2.blocked::no_mshrs                         0                       # number of cycles access was blocked
system.l2.blocked::no_targets                       0                       # number of cycles access was blocked
system.l2.avg_blocked_cycles::no_mshrs            nan                       # average number of cycles each access was blocked
system.l2.avg_blocked_cycles::no_targets          nan                       # average number of cycles each access was blocked
system.l2.demand_mshr_hits::.cpu.inst               1                       # number of demand (read+write) MSHR hits
system.l2.demand_mshr_hits::.cpu.data              11                       # number of demand (read+write) MSHR hits
system.l2.demand_mshr_hits::total                  12                       # number of demand (read+write) MSHR hits
system.l2.overall_mshr_hits::.cpu.inst              1                       # number of overall MSHR hits
system.l2.overall_mshr_hits::.cpu.data             11                       # number of overall MSHR hits
system.l2.overall_mshr_hits::total                 12                       # number of overall MSHR hits
system.l2.demand_mshr_misses::.cpu.inst          3251                       # number of demand (read+write) MSHR misses
system.l2.demand_mshr_misses::.cpu.data         16935                       # number of demand (read+write) MSHR misses
system.l2.demand_mshr_misses::total             20186                       # number of demand (read+write) MSHR misses
system.l2.overall_mshr_misses::.cpu.inst         3251                       # number of overall MSHR misses
system.l2.overall_mshr_misses::.cpu.data        16935                       # number of overall MSHR misses
system.l2.overall_mshr_misses::total            20186                       # number of overall MSHR misses
system.l2.demand_mshr_miss_latency::.cpu.inst    209595500                       # number of demand (read+write) MSHR miss cycles
system.l2.demand_mshr_miss_latency::.cpu.data   1098455000                       # number of demand (read+write) MSHR miss cycles
system.l2.demand_mshr_miss_latency::total   1308050500                       # number of demand (read+write) MSHR miss cycles
system.l2.overall_mshr_miss_latency::.cpu.inst    209595500                       # number of overall MSHR miss cycles
system.l2.overall_mshr_miss_latency::.cpu.data   1098455000                       # number of overall MSHR miss cycles
system.l2.overall_mshr_miss_latency::total   1308050500                       # number of overall MSHR miss cycles
system.l2.demand_mshr_miss_rate::.cpu.inst     0.143304                       # mshr miss rate for demand accesses
system.l2.demand_mshr_miss_rate::.cpu.data     0.024169                       # mshr miss rate for demand accesses
system.l2.demand_mshr_miss_rate::total       0.027905                       # mshr miss rate for demand accesses
system.l2.overall_mshr_miss_rate::.cpu.inst     0.143304                       # mshr miss rate for overall accesses
system.l2.overall_mshr_miss_rate::.cpu.data     0.024169                       # mshr miss rate for overall accesses
system.l2.overall_mshr_miss_rate::total      0.027905                       # mshr miss rate for overall accesses
system.l2.demand_avg_mshr_miss_latency::.cpu.inst 64471.085820                       # average overall mshr miss latency
system.l2.demand_avg_mshr_miss_latency::.cpu.data 64863.005610                       # average overall mshr miss latency
system.l2.demand_avg_mshr_miss_latency::total 64799.886060                       # average overall mshr miss latency
system.l2.overall_avg_mshr_miss_latency::.cpu.inst 64471.085820                       # average overall mshr miss latency
system.l2.overall_avg_mshr_miss_latency::.cpu.data 64863.005610                       # average overall mshr miss latency
system.l2.overall_avg_mshr_miss_latency::total 64799.886060                       # average overall mshr miss latency
system.l2.replacements                              0                       # number of replacements
system.l2.WritebackDirty_hits::.writebacks       688870                       # number of WritebackDirty hits
system.l2.WritebackDirty_hits::total           688870                       # number of WritebackDirty hits
system.l2.WritebackDirty_accesses::.writebacks       688870                       # number of WritebackDirty accesses(hits+misses)
system.l2.WritebackDirty_accesses::total       688870                       # number of WritebackDirty accesses(hits+misses)
system.l2.WritebackClean_hits::.writebacks        20538                       # number of WritebackClean hits
system.l2.WritebackClean_hits::total            20538                       # number of WritebackClean hits
system.l2.WritebackClean_accesses::.writebacks        20538                       # number of WritebackClean accesses(hits+misses)
system.l2.WritebackClean_accesses::total        20538                       # number of WritebackClean accesses(hits+misses)
system.l2.ReadExReq_hits::.cpu.data            467816                       # number of ReadExReq hits
system.l2.ReadExReq_hits::total                467816                       # number of ReadExReq hits
system.l2.ReadExReq_misses::.cpu.data           14587                       # number of ReadExReq misses
system.l2.ReadExReq_misses::total               14587                       # number of ReadExReq misses
system.l2.ReadExReq_miss_latency::.cpu.data   1082988500                       # number of ReadExReq miss cycles
system.l2.ReadExReq_miss_latency::total    1082988500                       # number of ReadExReq miss cycles
system.l2.ReadExReq_accesses::.cpu.data        482403                       # number of ReadExReq accesses(hits+misses)
system.l2.ReadExReq_accesses::total            482403                       # number of ReadExReq accesses(hits+misses)
system.l2.ReadExReq_miss_rate::.cpu.data     0.030238                       # miss rate for ReadExReq accesses
system.l2.ReadExReq_miss_rate::total         0.030238                       # miss rate for ReadExReq accesses
system.l2.ReadExReq_avg_miss_latency::.cpu.data 74243.401659                       # average ReadExReq miss latency
system.l2.ReadExReq_avg_miss_latency::total 74243.401659                       # average ReadExReq miss latency
system.l2.ReadExReq_mshr_misses::.cpu.data        14587                       # number of ReadExReq MSHR misses
system.l2.ReadExReq_mshr_misses::total          14587                       # number of ReadExReq MSHR misses
system.l2.ReadExReq_mshr_miss_latency::.cpu.data    937118500                       # number of ReadExReq MSHR miss cycles
system.l2.ReadExReq_mshr_miss_latency::total    937118500                       # number of ReadExReq MSHR miss cycles
system.l2.ReadExReq_mshr_miss_rate::.cpu.data     0.030238                       # mshr miss rate for ReadExReq accesses
system.l2.ReadExReq_mshr_miss_rate::total     0.030238                       # mshr miss rate for ReadExReq accesses
system.l2.ReadExReq_avg_mshr_miss_latency::.cpu.data 64243.401659                       # average ReadExReq mshr miss latency
system.l2.ReadExReq_avg_mshr_miss_latency::total 64243.401659                       # average ReadExReq mshr miss latency
system.l2.ReadCleanReq_hits::.cpu.inst          19434                       # number of ReadCleanReq hits
system.l2.ReadCleanReq_hits::total              19434                       # number of ReadCleanReq hits
system.l2.ReadCleanReq_misses::.cpu.inst         3252                       # number of ReadCleanReq misses
system.l2.ReadCleanReq_misses::total             3252                       # number of ReadCleanReq misses
system.l2.ReadCleanReq_miss_latency::.cpu.inst    242127000                       # number of ReadCleanReq miss cycles
system.l2.ReadCleanReq_miss_latency::total    242127000                       # number of ReadCleanReq miss cycles
system.l2.ReadCleanReq_accesses::.cpu.inst        22686                       # number of ReadCleanReq accesses(hits+misses)
system.l2.ReadCleanReq_accesses::total          22686                       # number of ReadCleanReq accesses(hits+misses)
system.l2.ReadCleanReq_miss_rate::.cpu.inst     0.143348                       # miss rate for ReadCleanReq accesses
system.l2.ReadCleanReq_miss_rate::total      0.143348                       # miss rate for ReadCleanReq accesses
system.l2.ReadCleanReq_avg_miss_latency::.cpu.inst 74454.797048                       # average ReadCleanReq miss latency
system.l2.ReadCleanReq_avg_miss_latency::total 74454.797048                       # average ReadCleanReq miss latency
system.l2.ReadCleanReq_mshr_hits::.cpu.inst            1                       # number of ReadCleanReq MSHR hits
system.l2.ReadCleanReq_mshr_hits::total             1                       # number of ReadCleanReq MSHR hits
system.l2.ReadCleanReq_mshr_misses::.cpu.inst         3251                       # number of ReadCleanReq MSHR misses
system.l2.ReadCleanReq_mshr_misses::total         3251                       # number of ReadCleanReq MSHR misses
system.l2.ReadCleanReq_mshr_miss_latency::.cpu.inst    209595500                       # number of ReadCleanReq MSHR miss cycles
system.l2.ReadCleanReq_mshr_miss_latency::total    209595500                       # number of ReadCleanReq MSHR miss cycles
system.l2.ReadCleanReq_mshr_miss_rate::.cpu.inst     0.143304                       # mshr miss rate for ReadCleanReq accesses
system.l2.ReadCleanReq_mshr_miss_rate::total     0.143304                       # mshr miss rate for ReadCleanReq accesses
system.l2.ReadCleanReq_avg_mshr_miss_latency::.cpu.inst 64471.085820                       # average ReadCleanReq mshr miss latency
system.l2.ReadCleanReq_avg_mshr_miss_latency::total 64471.085820                       # average ReadCleanReq mshr miss latency
system.l2.ReadSharedReq_hits::.cpu.data        215934                       # number of ReadSharedReq hits
system.l2.ReadSharedReq_hits::total            215934                       # number of ReadSharedReq hits
system.l2.ReadSharedReq_misses::.cpu.data         2359                       # number of ReadSharedReq misses
system.l2.ReadSharedReq_misses::total            2359                       # number of ReadSharedReq misses
system.l2.ReadSharedReq_miss_latency::.cpu.data    185598500                       # number of ReadSharedReq miss cycles
system.l2.ReadSharedReq_miss_latency::total    185598500                       # number of ReadSharedReq miss cycles
system.l2.ReadSharedReq_accesses::.cpu.data       218293                       # number of ReadSharedReq accesses(hits+misses)
system.l2.ReadSharedReq_accesses::total        218293                       # number of ReadSharedReq accesses(hits+misses)
system.l2.ReadSharedReq_miss_rate::.cpu.data     0.010807                       # miss rate for ReadSharedReq accesses
system.l2.ReadSharedReq_miss_rate::total     0.010807                       # miss rate for ReadSharedReq accesses
system.l2.ReadSharedReq_avg_miss_latency::.cpu.data 78676.769818                       # average ReadSharedReq miss latency
system.l2.ReadSharedReq_avg_miss_latency::total 78676.769818                       # average ReadSharedReq miss latency
system.l2.ReadSharedReq_mshr_hits::.cpu.data           11                       # number of ReadSharedReq MSHR hits
system.l2.ReadSharedReq_mshr_hits::total           11                       # number of ReadSharedReq MSHR hits
system.l2.ReadSharedReq_mshr_misses::.cpu.data         2348                       # number of ReadSharedReq MSHR misses
system.l2.ReadSharedReq_mshr_misses::total         2348                       # number of ReadSharedReq MSHR misses
system.l2.ReadSharedReq_mshr_miss_latency::.cpu.data    161336500                       # number of ReadSharedReq MSHR miss cycles
system.l2.ReadSharedReq_mshr_miss_latency::total    161336500                       # number of ReadSharedReq MSHR miss cycles
system.l2.ReadSharedReq_mshr_miss_rate::.cpu.data     0.010756                       # mshr miss rate for ReadSharedReq accesses
system.l2.ReadSharedReq_mshr_miss_rate::total     0.010756                       # mshr miss rate for ReadSharedReq accesses
system.l2.ReadSharedReq_avg_mshr_miss_latency::.cpu.data 68712.308348                       # average ReadSharedReq mshr miss latency
system.l2.ReadSharedReq_avg_mshr_miss_latency::total 68712.308348                       # average ReadSharedReq mshr miss latency
system.l2.InvalidateReq_hits::.cpu.data            34                       # number of InvalidateReq hits
system.l2.InvalidateReq_hits::total                34                       # number of InvalidateReq hits
system.l2.InvalidateReq_misses::.cpu.data           13                       # number of InvalidateReq misses
system.l2.InvalidateReq_misses::total              13                       # number of InvalidateReq misses
system.l2.InvalidateReq_accesses::.cpu.data           47                       # number of InvalidateReq accesses(hits+misses)
system.l2.InvalidateReq_accesses::total            47                       # number of InvalidateReq accesses(hits+misses)
system.l2.InvalidateReq_miss_rate::.cpu.data     0.276596                       # miss rate for InvalidateReq accesses
system.l2.InvalidateReq_miss_rate::total     0.276596                       # miss rate for InvalidateReq accesses
system.l2.InvalidateReq_mshr_misses::.cpu.data           13                       # number of InvalidateReq MSHR misses
system.l2.InvalidateReq_mshr_misses::total           13                       # number of InvalidateReq MSHR misses
system.l2.InvalidateReq_mshr_miss_latency::.cpu.data       253500                       # number of InvalidateReq MSHR miss cycles
system.l2.InvalidateReq_mshr_miss_latency::total       253500                       # number of InvalidateReq MSHR miss cycles
system.l2.InvalidateReq_mshr_miss_rate::.cpu.data     0.276596                       # mshr miss rate for InvalidateReq accesses
system.l2.InvalidateReq_mshr_miss_rate::total     0.276596                       # mshr miss rate for InvalidateReq accesses
system.l2.InvalidateReq_avg_mshr_miss_latency::.cpu.data        19500                       # average InvalidateReq mshr miss latency
system.l2.InvalidateReq_avg_mshr_miss_latency::total        19500                       # average InvalidateReq mshr miss latency
system.l2.power_state.pwrStateResidencyTicks::UNDEFINED  75890060500                       # Cumulative time (in ticks) in various power states
system.l2.tags.tagsinuse                 19673.818617                       # Cycle average of tags in use
system.l2.tags.total_refs                     1438620                       # Total number of references to valid blocks.
system.l2.tags.sampled_refs                     20233                       # Sample count of references to valid blocks.
system.l2.tags.avg_refs                     71.102654                       # Average number of references to valid blocks.
system.l2.tags.warmup_cycle                     77000                       # Cycle when the warmup percentage was hit.
system.l2.tags.occ_blocks::.writebacks      45.173425                       # Average occupied blocks per requestor
system.l2.tags.occ_blocks::.cpu.inst      3230.866967                       # Average occupied blocks per requestor
system.l2.tags.occ_blocks::.cpu.data     16397.778225                       # Average occupied blocks per requestor
system.l2.tags.occ_percent::.writebacks      0.000345                       # Average percentage of cache occupancy
[...]
system.mem_ctrls.dram.bw_inst_read::.cpu.inst       685413                       # Instruction read bandwidth from this memory (bytes/s)
system.mem_ctrls.dram.bw_inst_read::total       685413                       # Instruction read bandwidth from this memory (bytes/s)
system.mem_ctrls.dram.bw_total::.cpu.inst       685413                       # Total bandwidth to/from this memory (bytes/s)
system.mem_ctrls.dram.bw_total::.cpu.data      3570428                       # Total bandwidth to/from this memory (bytes/s)
system.mem_ctrls.dram.bw_total::total         4255841                       # Total bandwidth to/from this memory (bytes/s)
system.mem_ctrls.dram.readBursts                20186                       # Number of DRAM read bursts
system.mem_ctrls.dram.writeBursts                   0                       # Number of DRAM write bursts
system.mem_ctrls.dram.perBankRdBursts::0         1413                       # Per bank write bursts
system.mem_ctrls.dram.perBankRdBursts::1         1252                       # Per bank write bursts
system.mem_ctrls.dram.perBankRdBursts::2         1342                       # Per bank write bursts
system.mem_ctrls.dram.perBankRdBursts::3         1255                       # Per bank write bursts
system.mem_ctrls.dram.perBankRdBursts::4         1312                       # Per bank write bursts
system.mem_ctrls.dram.perBankRdBursts::5         1123                       # Per bank write bursts
system.mem_ctrls.dram.perBankRdBursts::6         1382                       # Per bank write bursts
system.mem_ctrls.dram.perBankRdBursts::7         1371                       # Per bank write bursts
system.mem_ctrls.dram.perBankRdBursts::8          827                       # Per bank write bursts
system.mem_ctrls.dram.perBankRdBursts::9         1249                       # Per bank write bursts
system.mem_ctrls.dram.perBankRdBursts::10         1115                       # Per bank write bursts
system.mem_ctrls.dram.perBankRdBursts::11         1233                       # Per bank write bursts
system.mem_ctrls.dram.perBankRdBursts::12         1274                       # Per bank write bursts
system.mem_ctrls.dram.perBankRdBursts::13         1428                       # Per bank write bursts
system.mem_ctrls.dram.perBankRdBursts::14         1515                       # Per bank write bursts
system.mem_ctrls.dram.perBankRdBursts::15         1095                       # Per bank write bursts
system.mem_ctrls.dram.perBankWrBursts::0            0                       # Per bank write bursts
system.mem_ctrls.dram.perBankWrBursts::1            0                       # Per bank write bursts
system.mem_ctrls.dram.perBankWrBursts::2            0                       # Per bank write bursts
system.mem_ctrls.dram.perBankWrBursts::3            0                       # Per bank write bursts
system.mem_ctrls.dram.perBankWrBursts::4            0                       # Per bank write bursts
system.mem_ctrls.dram.perBankWrBursts::5            0                       # Per bank write bursts
system.mem_ctrls.dram.perBankWrBursts::6            0                       # Per bank write bursts
system.mem_ctrls.dram.perBankWrBursts::7            0                       # Per bank write bursts
system.mem_ctrls.dram.perBankWrBursts::8            0                       # Per bank write bursts
system.mem_ctrls.dram.perBankWrBursts::9            0                       # Per bank write bursts
system.mem_ctrls.dram.perBankWrBursts::10            0                       # Per bank write bursts
system.mem_ctrls.dram.perBankWrBursts::11            0                       # Per bank write bursts
system.mem_ctrls.dram.perBankWrBursts::12            0                       # Per bank write bursts
system.mem_ctrls.dram.perBankWrBursts::13            0                       # Per bank write bursts
system.mem_ctrls.dram.perBankWrBursts::14            0                       # Per bank write bursts
system.mem_ctrls.dram.perBankWrBursts::15            0                       # Per bank write bursts
system.mem_ctrls.dram.totQLat               101225250                       # Total ticks spent queuing
system.mem_ctrls.dram.totBusLat             100930000                       # Total ticks spent in databus transfers
system.mem_ctrls.dram.totMemAccLat          479712750                       # Total ticks spent from burst creation until serviced by the DRAM
system.mem_ctrls.dram.avgQLat                 5014.63                       # Average queueing delay per DRAM burst
system.mem_ctrls.dram.avgBusLat               5000.00                       # Average bus latency per DRAM burst
system.mem_ctrls.dram.avgMemAccLat           23764.63                       # Average memory access latency per DRAM burst
system.mem_ctrls.dram.readRowHits               18041                       # Number of row buffer hits during reads
system.mem_ctrls.dram.writeRowHits                  0                       # Number of row buffer hits during writes
system.mem_ctrls.dram.readRowHitRate            89.37                       # Row buffer hit rate for reads
system.mem_ctrls.dram.writeRowHitRate             nan                       # Row buffer hit rate for writes
system.mem_ctrls.dram.bytesPerActivate::samples         2145                       # Bytes accessed per row activation
system.mem_ctrls.dram.bytesPerActivate::mean   602.286247                       # Bytes accessed per row activation
system.mem_ctrls.dram.bytesPerActivate::gmean   425.320602                       # Bytes accessed per row activation
system.mem_ctrls.dram.bytesPerActivate::stdev   389.368329                       # Bytes accessed per row activation
system.mem_ctrls.dram.bytesPerActivate::0-127          236     11.00%     11.00% # Bytes accessed per row activation
system.mem_ctrls.dram.bytesPerActivate::128-255          336     15.66%     26.67% # Bytes accessed per row activation
system.mem_ctrls.dram.bytesPerActivate::256-383          207      9.65%     36.32% # Bytes accessed per row activation
system.mem_ctrls.dram.bytesPerActivate::384-511          197      9.18%     45.50% # Bytes accessed per row activation
system.mem_ctrls.dram.bytesPerActivate::512-639          139      6.48%     51.98% # Bytes accessed per row activation
system.mem_ctrls.dram.bytesPerActivate::640-767           79      3.68%     55.66% # Bytes accessed per row activation
system.mem_ctrls.dram.bytesPerActivate::768-895           50      2.33%     58.00% # Bytes accessed per row activation
system.mem_ctrls.dram.bytesPerActivate::896-1023           42      1.96%     59.95% # Bytes accessed per row activation
system.mem_ctrls.dram.bytesPerActivate::1024-1151          859     40.05%    100.00% # Bytes accessed per row activation
system.mem_ctrls.dram.bytesPerActivate::total         2145                       # Bytes accessed per row activation
system.mem_ctrls.dram.bytesRead               1291904                       # Total number of bytes read from DRAM
system.mem_ctrls.dram.bytesWritten                  0                       # Total number of bytes written to DRAM
system.mem_ctrls.dram.avgRdBW               17.023362                       # Average DRAM read bandwidth in MiBytes/s
system.mem_ctrls.dram.avgWrBW                       0                       # Average DRAM write bandwidth in MiBytes/s
system.mem_ctrls.dram.peakBW                 12800.00                       # Theoretical peak bandwidth in MiByte/s
system.mem_ctrls.dram.busUtil                    0.13                       # Data bus utilization in percentage
system.mem_ctrls.dram.busUtilRead                0.13                       # Data bus utilization in percentage for reads
system.mem_ctrls.dram.busUtilWrite               0.00                       # Data bus utilization in percentage for writes
system.mem_ctrls.dram.pageHitRate               89.37                       # Row buffer hit rate, read and write combined
system.mem_ctrls.dram.power_state.pwrStateResidencyTicks::UNDEFINED  75890060500                       # Cumulative time (in ticks) in various power states
system.mem_ctrls.dram.rank0.actEnergy         8446620                       # Energy for activate commands per rank (pJ)
system.mem_ctrls.dram.rank0.preEnergy         4489485                       # Energy for precharge commands per rank (pJ)
system.mem_ctrls.dram.rank0.readEnergy       74613000                       # Energy for read commands per rank (pJ)
system.mem_ctrls.dram.rank0.writeEnergy             0                       # Energy for write commands per rank (pJ)
system.mem_ctrls.dram.rank0.refreshEnergy 5990281440.000001                       # Energy for refresh commands per rank (pJ)
system.mem_ctrls.dram.rank0.actBackEnergy   2103487530                       # Energy for active background per rank (pJ)
system.mem_ctrls.dram.rank0.preBackEnergy  27370425600                       # Energy for precharge background per rank (pJ)
system.mem_ctrls.dram.rank0.actPowerDownEnergy            0                       # Energy for active power-down per rank (pJ)
system.mem_ctrls.dram.rank0.prePowerDownEnergy            0                       # Energy for precharge power-down per rank (pJ)
system.mem_ctrls.dram.rank0.selfRefreshEnergy            0                       # Energy for self refresh per rank (pJ)
system.mem_ctrls.dram.rank0.totalEnergy   35551743675                       # Total energy per rank (pJ)
system.mem_ctrls.dram.rank0.averagePower   468.463768                       # Core power per rank (mW)
system.mem_ctrls.dram.rank0.totalIdleTime            0                       # Total Idle time Per DRAM Rank
system.mem_ctrls.dram.rank0.pwrStateTime::IDLE  71135246750                       # Time in different power states
system.mem_ctrls.dram.rank0.pwrStateTime::REF   2533960000                       # Time in different power states
system.mem_ctrls.dram.rank0.pwrStateTime::SREF            0                       # Time in different power states
system.mem_ctrls.dram.rank0.pwrStateTime::PRE_PDN            0                       # Time in different power states
system.mem_ctrls.dram.rank0.pwrStateTime::ACT   2220853750                       # Time in different power states
system.mem_ctrls.dram.rank0.pwrStateTime::ACT_PDN            0                       # Time in different power states
system.mem_ctrls.dram.rank1.actEnergy         6868680                       # Energy for activate commands per rank (pJ)
system.mem_ctrls.dram.rank1.preEnergy         3650790                       # Energy for precharge commands per rank (pJ)
system.mem_ctrls.dram.rank1.readEnergy       69515040                       # Energy for read commands per rank (pJ)
system.mem_ctrls.dram.rank1.writeEnergy             0                       # Energy for write commands per rank (pJ)
system.mem_ctrls.dram.rank1.refreshEnergy 5990281440.000001                       # Energy for refresh commands per rank (pJ)
system.mem_ctrls.dram.rank1.actBackEnergy   1826684700                       # Energy for active background per rank (pJ)
system.mem_ctrls.dram.rank1.preBackEnergy  27603522720                       # Energy for precharge background per rank (pJ)
system.mem_ctrls.dram.rank1.actPowerDownEnergy            0                       # Energy for active power-down per rank (pJ)
system.mem_ctrls.dram.rank1.prePowerDownEnergy            0                       # Energy for precharge power-down per rank (pJ)
system.mem_ctrls.dram.rank1.selfRefreshEnergy            0                       # Energy for self refresh per rank (pJ)
system.mem_ctrls.dram.rank1.totalEnergy   35500523370                       # Total energy per rank (pJ)
system.mem_ctrls.dram.rank1.averagePower   467.788840                       # Core power per rank (mW)
system.mem_ctrls.dram.rank1.totalIdleTime            0                       # Total Idle time Per DRAM Rank
system.mem_ctrls.dram.rank1.pwrStateTime::IDLE  71742726250                       # Time in different power states
system.mem_ctrls.dram.rank1.pwrStateTime::REF   2533960000                       # Time in different power states
system.mem_ctrls.dram.rank1.pwrStateTime::SREF            0                       # Time in different power states
system.mem_ctrls.dram.rank1.pwrStateTime::PRE_PDN            0                       # Time in different power states
system.mem_ctrls.dram.rank1.pwrStateTime::ACT   1613374250                       # Time in different power states
system.mem_ctrls.dram.rank1.pwrStateTime::ACT_PDN            0                       # Time in different power states
system.mem_ctrls.power_state.pwrStateResidencyTicks::UNDEFINED  75890060500                       # Cumulative time (in ticks) in various power states
system.membus.trans_dist::ReadResp               5599                       # Transaction distribution
system.membus.trans_dist::ReadExReq             14587                       # Transaction distribution
system.membus.trans_dist::ReadExResp            14587                       # Transaction distribution
system.membus.trans_dist::ReadSharedReq          5599                       # Transaction distribution
system.membus.trans_dist::InvalidateReq            13                       # Transaction distribution
system.membus.pkt_count_system.l2.mem_side_port::system.mem_ctrls.port        40385                       # Packet count per connected requestor and responder (bytes)
system.membus.pkt_count::total                  40385                       # Packet count per connected requestor and responder (bytes)
system.membus.pkt_size_system.l2.mem_side_port::system.mem_ctrls.port       322976                       # Cumulative packet size per connected requestor and responder (bytes)
system.membus.pkt_size::total                  322976                       # Cumulative packet size per connected requestor and responder (bytes)
system.membus.snoops                                0                       # Total snoops (count)
system.membus.snoopTraffic                          0                       # Total snoop traffic (bytes)
system.membus.snoop_fanout::samples             20199                       # Request fanout histogram
system.membus.snoop_fanout::mean                    0                       # Request fanout histogram
system.membus.snoop_fanout::stdev                   0                       # Request fanout histogram
system.membus.snoop_fanout::underflows              0      0.00%      0.00% # Request fanout histogram
system.membus.snoop_fanout::0                   20199    100.00%    100.00% # Request fanout histogram
system.membus.snoop_fanout::1                       0      0.00%    100.00% # Request fanout histogram
system.membus.snoop_fanout::overflows               0      0.00%    100.00% # Request fanout histogram
system.membus.snoop_fanout::min_value               0                       # Request fanout histogram
system.membus.snoop_fanout::max_value               0                       # Request fanout histogram
system.membus.snoop_fanout::total               20199                       # Request fanout histogram
system.membus.power_state.pwrStateResidencyTicks::UNDEFINED  75890060500                       # Cumulative time (in ticks) in various power states
system.membus.reqLayer0.occupancy            24685000                       # Layer occupancy (ticks)
system.membus.reqLayer0.utilization               0.0                       # Layer utilization (%)
system.membus.respLayer1.occupancy           46228250                       # Layer occupancy (ticks)
system.membus.respLayer1.utilization              0.1                       # Layer utilization (%)
system.tol2bus.trans_dist::ReadResp            240979                       # Transaction distribution
system.tol2bus.trans_dist::WritebackDirty       688870                       # Transaction distribution
system.tol2bus.trans_dist::WritebackClean        21079                       # Transaction distribution
system.tol2bus.trans_dist::CleanEvict            7777                       # Transaction distribution
system.tol2bus.trans_dist::ReadExReq           482403                       # Transaction distribution
system.tol2bus.trans_dist::ReadExResp          482403                       # Transaction distribution
system.tol2bus.trans_dist::ReadCleanReq         22686                       # Transaction distribution
system.tol2bus.trans_dist::ReadSharedReq       218293                       # Transaction distribution
system.tol2bus.trans_dist::InvalidateReq           47                       # Transaction distribution
system.tol2bus.trans_dist::InvalidateResp           47                       # Transaction distribution
system.tol2bus.pkt_count_system.cpu.icache.mem_side_port::system.l2.cpu_side_port        66451                       # Packet count per connected requestor and responder (bytes)
system.tol2bus.pkt_count_system.cpu.dcache.mem_side_port::system.l2.cpu_side_port      2098133                       # Packet count per connected requestor and responder (bytes)
system.tol2bus.pkt_count::total               2164584                       # Packet count per connected requestor and responder (bytes)
system.tol2bus.pkt_size_system.cpu.icache.mem_side_port::system.l2.cpu_side_port       700240                       # Cumulative packet size per connected requestor and responder (bytes)
system.tol2bus.pkt_size_system.cpu.dcache.mem_side_port::system.l2.cpu_side_port     22233056                       # Cumulative packet size per connected requestor and responder (bytes)
system.tol2bus.pkt_size::total               22933296                       # Cumulative packet size per connected requestor and responder (bytes)
system.tol2bus.snoops                               0                       # Total snoops (count)
system.tol2bus.snoopTraffic                         0                       # Total snoop traffic (bytes)
system.tol2bus.snoop_fanout::samples           723429                       # Request fanout histogram
system.tol2bus.snoop_fanout::mean            0.003475                       # Request fanout histogram
system.tol2bus.snoop_fanout::stdev           0.058848                       # Request fanout histogram
system.tol2bus.snoop_fanout::underflows             0      0.00%      0.00% # Request fanout histogram
system.tol2bus.snoop_fanout::0                 720915     99.65%     99.65% # Request fanout histogram
system.tol2bus.snoop_fanout::1                   2514      0.35%    100.00% # Request fanout histogram
system.tol2bus.snoop_fanout::2                      0      0.00%    100.00% # Request fanout histogram
system.tol2bus.snoop_fanout::overflows              0      0.00%    100.00% # Request fanout histogram
system.tol2bus.snoop_fanout::min_value              0                       # Request fanout histogram
system.tol2bus.snoop_fanout::max_value              1                       # Request fanout histogram
system.tol2bus.snoop_fanout::total             723429                       # Request fanout histogram
system.tol2bus.power_state.pwrStateResidencyTicks::UNDEFINED  75890060500                       # Cumulative time (in ticks) in various power states
system.tol2bus.reqLayer0.occupancy         1075552000                       # Layer occupancy (ticks)
system.tol2bus.reqLayer0.utilization              1.4                       # Layer utilization (%)
system.tol2bus.respLayer0.occupancy          22688495                       # Layer occupancy (ticks)
system.tol2bus.respLayer0.utilization             0.0                       # Layer utilization (%)
system.tol2bus.respLayer1.occupancy         700725488                       # Layer occupancy (ticks)
system.tol2bus.respLayer1.utilization             0.9                       # Layer utilization (%)
system.voltage_domain.voltage                       1                       # Voltage in Volts

---------- End Simulation Statistics   ----------
