
---------- Begin Simulation Statistics ----------
final_tick                                70749856500                       # Number of ticks from beginning of simulation (restored from checkpoints and never reset)
host_inst_rate                                 365407                       # Simulator instruction rate (inst/s)
host_mem_usage                                 669860                       # Number of bytes of host memory used
host_op_rate                                   426892                       # Simulator op (including micro ops) rate (op/s)
host_seconds                                   273.67                       # Real time elapsed on the host
host_tick_rate                              258524604                       # Simulator tick rate (ticks/s)
sim_freq                                 1000000000000                       # Frequency of simulated ticks
sim_insts                                   100000000                       # Number of instructions simulated
sim_ops                                     116826593                       # Number of ops (including micro ops) simulated
sim_seconds                                  0.070750                       # Number of seconds simulated
sim_ticks                                 70749856500                       # Number of ticks simulated
system.cpu.committedInsts                   100000000                       # Number of instructions committed
system.cpu.committedOps                     116826593                       # Number of ops (including micro ops) committed
system.cpu.cpi                               1.414997                       # CPI: cycles per instruction
system.cpu.discardedOps                        503867                       # Number of ops (including micro ops) which were discarded before commit
system.cpu.idleCycles                         6174203                       # Total number of cycles that the object has spent stopped
system.cpu.ipc                               0.706715                       # IPC: instructions per cycle
system.cpu.numCycles                        141499713                       # number of cpu cycles simulated
system.cpu.numFetchSuspends                         0                       # Number of times Execute suspended instruction fetching
system.cpu.numWorkItemsCompleted                    0                       # number of work items this cpu completed
system.cpu.numWorkItemsStarted                      0                       # number of work items this cpu started
system.cpu.op_class_0::No_OpClass                   0      0.00%      0.00% # Class of committed instruction
system.cpu.op_class_0::IntAlu                65231396     55.84%     55.84% # Class of committed instruction
system.cpu.op_class_0::IntMult                 602374      0.52%     56.35% # Class of committed instruction
system.cpu.op_class_0::IntDiv                       0      0.00%     56.35% # Class of committed instruction
system.cpu.op_class_0::FloatAdd                     0      0.00%     56.35% # Class of committed instruction
system.cpu.op_class_0::FloatCmp                     0      0.00%     56.35% # Class of committed instruction
system.cpu.op_class_0::FloatCvt                     0      0.00%     56.35% # Class of committed instruction
system.cpu.op_class_0::FloatMult                    0      0.00%     56.35% # Class of committed instruction
system.cpu.op_class_0::FloatMultAcc                 0      0.00%     56.35% # Class of committed instruction
system.cpu.op_class_0::FloatDiv                     0      0.00%     56.35% # Class of committed instruction
system.cpu.op_class_0::FloatMisc                    0      0.00%     56.35% # Class of committed instruction
system.cpu.op_class_0::FloatSqrt                    0      0.00%     56.35% # Class of committed instruction
system.cpu.op_class_0::SimdAdd                    380      0.00%     56.35% # Class of committed instruction
system.cpu.op_class_0::SimdAddAcc                   0      0.00%     56.35% # Class of committed instruction
system.cpu.op_class_0::SimdAlu                    470      0.00%     56.35% # Class of committed instruction
system.cpu.op_class_0::SimdCmp                    382      0.00%     56.35% # Class of committed instruction
system.cpu.op_class_0::SimdCvt                      0      0.00%     56.35% # Class of committed instruction
system.cpu.op_class_0::SimdMisc                    53      0.00%     56.35% # Class of committed instruction
system.cpu.op_class_0::SimdMult                     0      0.00%     56.35% # Class of committed instruction
system.cpu.op_class_0::SimdMultAcc                  0      0.00%     56.35% # Class of committed instruction
system.cpu.op_class_0::SimdShift                    0      0.00%     56.35% # Class of committed instruction
system.cpu.op_class_0::SimdShiftAcc                 0      0.00%     56.35% # Class of committed instruction
system.cpu.op_class_0::SimdDiv                      0      0.00%     56.35% # Class of committed instruction
system.cpu.op_class_0::SimdSqrt                     0      0.00%     56.35% # Class of committed instruction
system.cpu.op_class_0::SimdFloatAdd            783705      0.67%     57.02% # Class of committed instruction
system.cpu.op_class_0::SimdFloatAlu                 0      0.00%     57.02% # Class of committed instruction
system.cpu.op_class_0::SimdFloatCmp            769156      0.66%     57.68% # Class of committed instruction
system.cpu.op_class_0::SimdFloatCvt            311548      0.27%     57.95% # Class of committed instruction
system.cpu.op_class_0::SimdFloatDiv            152211      0.13%     58.08% # Class of committed instruction
system.cpu.op_class_0::SimdFloatMisc           950762      0.81%     58.89% # Class of committed instruction
system.cpu.op_class_0::SimdFloatMult            86008      0.07%     58.97% # Class of committed instruction
system.cpu.op_class_0::SimdFloatMultAcc         12802      0.01%     58.98% # Class of committed instruction
system.cpu.op_class_0::SimdFloatSqrt                0      0.00%     58.98% # Class of committed instruction
system.cpu.op_class_0::SimdReduceAdd                0      0.00%     58.98% # Class of committed instruction
system.cpu.op_class_0::SimdReduceAlu                0      0.00%     58.98% # Class of committed instruction
system.cpu.op_class_0::SimdReduceCmp                0      0.00%     58.98% # Class of committed instruction
system.cpu.op_class_0::SimdFloatReduceAdd            0      0.00%     58.98% # Class of committed instruction
system.cpu.op_class_0::SimdFloatReduceCmp            0      0.00%     58.98% # Class of committed instruction
system.cpu.op_class_0::SimdAes                      0      0.00%     58.98% # Class of committed instruction
system.cpu.op_class_0::SimdAesMix                   0      0.00%     58.98% # Class of committed instruction
system.cpu.op_class_0::SimdSha1Hash                 0      0.00%     58.98% # Class of committed instruction
system.cpu.op_class_0::SimdSha1Hash2                0      0.00%     58.98% # Class of committed instruction
system.cpu.op_class_0::SimdSha256Hash               0      0.00%     58.98% # Class of committed instruction
system.cpu.op_class_0::SimdSha256Hash2              0      0.00%     58.98% # Class of committed instruction
system.cpu.op_class_0::SimdShaSigma2                0      0.00%     58.98% # Class of committed instruction
system.cpu.op_class_0::SimdShaSigma3                0      0.00%     58.98% # Class of committed instruction
system.cpu.op_class_0::SimdPredAlu                  0      0.00%     58.98% # Class of committed instruction
system.cpu.op_class_0::MemRead               30319972     25.95%     84.93% # Class of committed instruction
system.cpu.op_class_0::MemWrite              17605374     15.07%    100.00% # Class of committed instruction
system.cpu.op_class_0::FloatMemRead                 0      0.00%    100.00% # Class of committed instruction
system.cpu.op_class_0::FloatMemWrite                0      0.00%    100.00% # Class of committed instruction
system.cpu.op_class_0::IprAccess                    0      0.00%    100.00% # Class of committed instruction
system.cpu.op_class_0::InstPrefetch                 0      0.00%    100.00% # Class of committed instruction
system.cpu.op_class_0::total                116826593                       # Class of committed instruction
system.cpu.tickCycles                       135325510                       # Number of cycles that the object actually ticked
system.cpu.workload.numSyscalls                    33                       # Number of system calls
system.membus.snoop_filter.hit_multi_requests            0                       # Number of requests hitting in the snoop filter with multiple (>1) holders of the requested data.
system.membus.snoop_filter.hit_multi_snoops            0                       # Number of snoops hitting in the snoop filter with multiple (>1) holders of the requested data.
system.membus.snoop_filter.hit_single_requests            0                       # Number of requests hitting in the snoop filter with a single holder of the requested data.
system.membus.snoop_filter.hit_single_snoops            0                       # Number of snoops hitting in the snoop filter with a single holder of the requested data.
system.membus.snoop_filter.tot_requests          5646                       # Total number of requests made to the snoop filter.
system.membus.snoop_filter.tot_snoops               0                       # Total number of snoops made to the snoop filter.
system.tol2bus.snoop_filter.hit_multi_requests         2631                       # Number of requests hitting in the snoop filter with multiple (>1) holders of the requested data.
system.tol2bus.snoop_filter.hit_multi_snoops            0                       # Number of snoops hitting in the snoop filter with multiple (>1) holders of the requested data.
system.tol2bus.snoop_filter.hit_single_requests       242687                       # Number of requests hitting in the snoop filter with a single holder of the requested data.
system.tol2bus.snoop_filter.hit_single_snoops            0                       # Number of snoops hitting in the snoop filter with a single holder of the requested data.
system.tol2bus.snoop_filter.tot_requests       486138                       # Total number of requests made to the snoop filter.
system.tol2bus.snoop_filter.tot_snoops              0                       # Total number of snoops made to the snoop filter.
system.clk_domain.clock                          1000                       # Clock period in ticks
system.cpu.branchPred.lookups                 6104750                       # Number of BP lookups
system.cpu.branchPred.condPredicted           5266332                       # Number of conditional branches predicted
system.cpu.branchPred.condIncorrect            188560                       # Number of conditional branches incorrect
system.cpu.branchPred.BTBLookups              3813409                       # Number of BTB lookups
system.cpu.branchPred.BTBHits                 3808544                       # Number of BTB hits
system.cpu.branchPred.BTBHitPct             99.872424                       # BTB Hit Percentage
system.cpu.branchPred.RASUsed                  257395                       # Number of times the RAS was used to get a target.
system.cpu.branchPred.RASIncorrect                  2                       # Number of incorrect RAS predictions.
system.cpu.branchPred.indirectLookups          154315                       # Number of indirect predictor lookups.
system.cpu.branchPred.indirectHits                235                       # Number of indirect target hits.
system.cpu.branchPred.indirectMisses           154080                       # Number of indirect misses.
system.cpu.branchPred.indirectMispredicted          199                       # Number of mispredicted indirect branches.
system.cpu.dcache.demand_hits::.cpu.data     47378039                       # number of demand (read+write) hits
system.cpu.dcache.demand_hits::total         47378039                       # number of demand (read+write) hits
system.cpu.dcache.overall_hits::.cpu.data     47402983                       # number of overall hits
system.cpu.dcache.overall_hits::total        47402983                       # number of overall hits
system.cpu.dcache.demand_misses::.cpu.data       404343                       # number of demand (read+write) misses
system.cpu.dcache.demand_misses::total         404343                       # number of demand (read+write) misses
system.cpu.dcache.overall_misses::.cpu.data       404618                       # number of overall misses
system.cpu.dcache.overall_misses::total        404618                       # number of overall misses
system.cpu.dcache.demand_miss_latency::.cpu.data   4821829000                       # number of demand (read+write) miss cycles
system.cpu.dcache.demand_miss_latency::total   4821829000                       # number of demand (read+write) miss cycles
system.cpu.dcache.overall_miss_latency::.cpu.data   4821829000                       # number of overall miss cycles
system.cpu.dcache.overall_miss_latency::total   4821829000                       # number of overall miss cycles
system.cpu.dcache.demand_accesses::.cpu.data     47782382                       # number of demand (read+write) accesses
system.cpu.dcache.demand_accesses::total     47782382                       # number of demand (read+write) accesses
system.cpu.dcache.overall_accesses::.cpu.data     47807601                       # number of overall (read+write) accesses
system.cpu.dcache.overall_accesses::total     47807601                       # number of overall (read+write) accesses
system.cpu.dcache.demand_miss_rate::.cpu.data     0.008462                       # miss rate for demand accesses
system.cpu.dcache.demand_miss_rate::total     0.008462                       # miss rate for demand accesses
system.cpu.dcache.overall_miss_rate::.cpu.data     0.008463                       # miss rate for overall accesses
system.cpu.dcache.overall_miss_rate::total     0.008463                       # miss rate for overall accesses
system.cpu.dcache.demand_avg_miss_latency::.cpu.data 11925.095773                       # average overall miss latency
system.cpu.dcache.demand_avg_miss_latency::total 11925.095773                       # average overall miss latency
system.cpu.dcache.overall_avg_miss_latency::.cpu.data 11916.990841                       # average overall miss latency
system.cpu.dcache.overall_avg_miss_latency::total 11916.990841                       # average overall miss latency
system.cpu.dcache.blocked_cycles::no_mshrs          185                       # number of cycles access was blocked
system.cpu.dcache.blocked_cycles::no_targets            0                       # number of cycles access was blocked
system.cpu.dcache.blocked::no_mshrs                 2                       # number of cycles access was blocked
system.cpu.dcache.blocked::no_targets               0                       # number of cycles access was blocked
system.cpu.dcache.avg_blocked_cycles::no_mshrs    92.500000                       # average number of cycles each access was blocked
system.cpu.dcache.avg_blocked_cycles::no_targets          nan                       # average number of cycles each access was blocked
system.cpu.dcache.writebacks::.writebacks       232298                       # number of writebacks
system.cpu.dcache.writebacks::total            232298                       # number of writebacks
system.cpu.dcache.demand_mshr_hits::.cpu.data       166866                       # number of demand (read+write) MSHR hits
system.cpu.dcache.demand_mshr_hits::total       166866                       # number of demand (read+write) MSHR hits
system.cpu.dcache.overall_mshr_hits::.cpu.data       166866                       # number of overall MSHR hits
system.cpu.dcache.overall_mshr_hits::total       166866                       # number of overall MSHR hits
system.cpu.dcache.demand_mshr_misses::.cpu.data       237477                       # number of demand (read+write) MSHR misses
system.cpu.dcache.demand_mshr_misses::total       237477                       # number of demand (read+write) MSHR misses
system.cpu.dcache.overall_mshr_misses::.cpu.data       237743                       # number of overall MSHR misses
system.cpu.dcache.overall_mshr_misses::total       237743                       # number of overall MSHR misses
system.cpu.dcache.demand_mshr_miss_latency::.cpu.data   3161915500                       # number of demand (read+write) MSHR miss cycles
system.cpu.dcache.demand_mshr_miss_latency::total   3161915500                       # number of demand (read+write) MSHR miss cycles
system.cpu.dcache.overall_mshr_miss_latency::.cpu.data   3170818000                       # number of overall MSHR miss cycles
system.cpu.dcache.overall_mshr_miss_latency::total   3170818000                       # number of overall MSHR miss cycles
system.cpu.dcache.demand_mshr_miss_rate::.cpu.data     0.004970                       # mshr miss rate for demand accesses
system.cpu.dcache.demand_mshr_miss_rate::total     0.004970                       # mshr miss rate for demand accesses
system.cpu.dcache.overall_mshr_miss_rate::.cpu.data     0.004973                       # mshr miss rate for overall accesses
system.cpu.dcache.overall_mshr_miss_rate::total     0.004973                       # mshr miss rate for overall accesses
system.cpu.dcache.demand_avg_mshr_miss_latency::.cpu.data 13314.617837                       # average overall mshr miss latency
system.cpu.dcache.demand_avg_mshr_miss_latency::total 13314.617837                       # average overall mshr miss latency
system.cpu.dcache.overall_avg_mshr_miss_latency::.cpu.data 13337.166604                       # average overall mshr miss latency
system.cpu.dcache.overall_avg_mshr_miss_latency::total 13337.166604                       # average overall mshr miss latency
system.cpu.dcache.replacements                 237231                       # number of replacements
system.cpu.dcache.ReadReq_hits::.cpu.data     30255532                       # number of ReadReq hits
system.cpu.dcache.ReadReq_hits::total        30255532                       # number of ReadReq hits
system.cpu.dcache.ReadReq_misses::.cpu.data        52607                       # number of ReadReq misses
system.cpu.dcache.ReadReq_misses::total         52607                       # number of ReadReq misses
system.cpu.dcache.ReadReq_miss_latency::.cpu.data    763697500                       # number of ReadReq miss cycles
system.cpu.dcache.ReadReq_miss_latency::total    763697500                       # number of ReadReq miss cycles
system.cpu.dcache.ReadReq_accesses::.cpu.data     30308139                       # number of ReadReq accesses(hits+misses)
system.cpu.dcache.ReadReq_accesses::total     30308139                       # number of ReadReq accesses(hits+misses)
system.cpu.dcache.ReadReq_miss_rate::.cpu.data     0.001736                       # miss rate for ReadReq accesses
system.cpu.dcache.ReadReq_miss_rate::total     0.001736                       # miss rate for ReadReq accesses
system.cpu.dcache.ReadReq_avg_miss_latency::.cpu.data 14517.031954                       # average ReadReq miss latency
system.cpu.dcache.ReadReq_avg_miss_latency::total 14517.031954                       # average ReadReq miss latency
system.cpu.dcache.ReadReq_mshr_hits::.cpu.data         2266                       # number of ReadReq MSHR hits
system.cpu.dcache.ReadReq_mshr_hits::total         2266                       # number of ReadReq MSHR hits
system.cpu.dcache.ReadReq_mshr_misses::.cpu.data        50341                       # number of ReadReq MSHR misses
system.cpu.dcache.ReadReq_mshr_misses::total        50341                       # number of ReadReq MSHR misses
system.cpu.dcache.ReadReq_mshr_miss_latency::.cpu.data    676490000                       # number of ReadReq MSHR miss cycles
system.cpu.dcache.ReadReq_mshr_miss_latency::total    676490000                       # number of ReadReq MSHR miss cycles
system.cpu.dcache.ReadReq_mshr_miss_rate::.cpu.data     0.001661                       # mshr miss rate for ReadReq accesses
system.cpu.dcache.ReadReq_mshr_miss_rate::total     0.001661                       # mshr miss rate for ReadReq accesses
system.cpu.dcache.ReadReq_avg_mshr_miss_latency::.cpu.data 13438.151805                       # average ReadReq mshr miss latency
system.cpu.dcache.ReadReq_avg_mshr_miss_latency::total 13438.151805                       # average ReadReq mshr miss latency
system.cpu.dcache.WriteReq_hits::.cpu.data     17122507                       # number of WriteReq hits
system.cpu.dcache.WriteReq_hits::total       17122507                       # number of WriteReq hits
system.cpu.dcache.WriteReq_misses::.cpu.data       351736                       # number of WriteReq misses
system.cpu.dcache.WriteReq_misses::total       351736                       # number of WriteReq misses
system.cpu.dcache.WriteReq_miss_latency::.cpu.data   4058131500                       # number of WriteReq miss cycles
system.cpu.dcache.WriteReq_miss_latency::total   4058131500                       # number of WriteReq miss cycles
system.cpu.dcache.WriteReq_accesses::.cpu.data     17474243                       # number of WriteReq accesses(hits+misses)
system.cpu.dcache.WriteReq_accesses::total     17474243                       # number of WriteReq accesses(hits+misses)
system.cpu.dcache.WriteReq_miss_rate::.cpu.data     0.020129                       # miss rate for WriteReq accesses
system.cpu.dcache.WriteReq_miss_rate::total     0.020129                       # miss rate for WriteReq accesses
system.cpu.dcache.WriteReq_avg_miss_latency::.cpu.data 11537.435747                       # average WriteReq miss latency
system.cpu.dcache.WriteReq_avg_miss_latency::total 11537.435747                       # average WriteReq miss latency
system.cpu.dcache.WriteReq_mshr_hits::.cpu.data       164600                       # number of WriteReq MSHR hits
system.cpu.dcache.WriteReq_mshr_hits::total       164600                       # number of WriteReq MSHR hits
system.cpu.dcache.WriteReq_mshr_misses::.cpu.data       187136                       # number of WriteReq MSHR misses
system.cpu.dcache.WriteReq_mshr_misses::total       187136                       # number of WriteReq MSHR misses
system.cpu.dcache.WriteReq_mshr_miss_latency::.cpu.data   2485425500                       # number of WriteReq MSHR miss cycles
system.cpu.dcache.WriteReq_mshr_miss_latency::total   2485425500                       # number of WriteReq MSHR miss cycles
system.cpu.dcache.WriteReq_mshr_miss_rate::.cpu.data     0.010709                       # mshr miss rate for WriteReq accesses
system.cpu.dcache.WriteReq_mshr_miss_rate::total     0.010709                       # mshr miss rate for WriteReq accesses
system.cpu.dcache.WriteReq_avg_mshr_miss_latency::.cpu.data 13281.386265                       # average WriteReq mshr miss latency
system.cpu.dcache.WriteReq_avg_mshr_miss_latency::total 13281.386265                       # average WriteReq mshr miss latency
system.cpu.dcache.SoftPFReq_hits::.cpu.data        24944                       # number of SoftPFReq hits
system.cpu.dcache.SoftPFReq_hits::total         24944                       # number of SoftPFReq hits
system.cpu.dcache.SoftPFReq_misses::.cpu.data          275                       # number of SoftPFReq misses
system.cpu.dcache.SoftPFReq_misses::total          275                       # number of SoftPFReq misses
system.cpu.dcache.SoftPFReq_accesses::.cpu.data        25219                       # number of SoftPFReq accesses(hits+misses)
system.cpu.dcache.SoftPFReq_accesses::total        25219                       # number of SoftPFReq accesses(hits+misses)
system.cpu.dcache.SoftPFReq_miss_rate::.cpu.data     0.010904                       # miss rate for SoftPFReq accesses
system.cpu.dcache.SoftPFReq_miss_rate::total     0.010904                       # miss rate for SoftPFReq accesses
system.cpu.dcache.SoftPFReq_mshr_misses::.cpu.data          266                       # number of SoftPFReq MSHR misses
system.cpu.dcache.SoftPFReq_mshr_misses::total          266                       # number of SoftPFReq MSHR misses
system.cpu.dcache.SoftPFReq_mshr_miss_latency::.cpu.data      8902500                       # number of SoftPFReq MSHR miss cycles
system.cpu.dcache.SoftPFReq_mshr_miss_latency::total      8902500                       # number of SoftPFReq MSHR miss cycles
system.cpu.dcache.SoftPFReq_mshr_miss_rate::.cpu.data     0.010548                       # mshr miss rate for SoftPFReq accesses
system.cpu.dcache.SoftPFReq_mshr_miss_rate::total     0.010548                       # mshr miss rate for SoftPFReq accesses
system.cpu.dcache.SoftPFReq_avg_mshr_miss_latency::.cpu.data 33468.045113                       # average SoftPFReq mshr miss latency
system.cpu.dcache.SoftPFReq_avg_mshr_miss_latency::total 33468.045113                       # average SoftPFReq mshr miss latency
system.cpu.dcache.LoadLockedReq_hits::.cpu.data          166                       # number of LoadLockedReq hits
system.cpu.dcache.LoadLockedReq_hits::total          166                       # number of LoadLockedReq hits
system.cpu.dcache.LoadLockedReq_accesses::.cpu.data          166                       # number of LoadLockedReq accesses(hits+misses)
system.cpu.dcache.LoadLockedReq_accesses::total          166                       # number of LoadLockedReq accesses(hits+misses)
system.cpu.dcache.StoreCondReq_hits::.cpu.data          166                       # number of StoreCondReq hits
system.cpu.dcache.StoreCondReq_hits::total          166                       # number of StoreCondReq hits
system.cpu.dcache.StoreCondReq_accesses::.cpu.data          166                       # number of StoreCondReq accesses(hits+misses)
system.cpu.dcache.StoreCondReq_accesses::total          166                       # number of StoreCondReq accesses(hits+misses)
system.cpu.dcache.power_state.pwrStateResidencyTicks::UNDEFINED  70749856500                       # Cumulative time (in ticks) in various power states
system.cpu.dcache.tags.tagsinuse           510.784411                       # Cycle average of tags in use
system.cpu.dcache.tags.total_refs            47641058                       # Total number of references to valid blocks.
system.cpu.dcache.tags.sampled_refs            237743                       # Sample count of references to valid blocks.
system.cpu.dcache.tags.avg_refs            200.388899                       # Average number of references to valid blocks.
system.cpu.dcache.tags.warmup_cycle            176500                       # Cycle when the warmup percentage was hit.
system.cpu.dcache.tags.occ_blocks::.cpu.data   510.784411                       # Average occupied blocks per requestor
system.cpu.dcache.tags.occ_percent::.cpu.data     0.997626                       # Average percentage of cache occupancy
system.cpu.dcache.tags.occ_percent::total     0.997626                       # Average percentage of cache occupancy
system.cpu.dcache.tags.occ_task_id_blocks::1024          512                       # Occupied blocks per task id
system.cpu.dcache.tags.age_task_id_blocks_1024::0           41                       # Occupied blocks per task id
system.cpu.dcache.tags.age_task_id_blocks_1024::1          211                       # Occupied blocks per task id
system.cpu.dcache.tags.age_task_id_blocks_1024::2          241                       # Occupied blocks per task id
system.cpu.dcache.tags.age_task_id_blocks_1024::3           16                       # Occupied blocks per task id
system.cpu.dcache.tags.age_task_id_blocks_1024::4            3                       # Occupied blocks per task id
system.cpu.dcache.tags.occ_task_id_percent::1024            1                       # Percentage of cache occupancy per task id
system.cpu.dcache.tags.tag_accesses          95853609                       # Number of tag accesses
system.cpu.dcache.tags.data_accesses         95853609                       # Number of data accesses
system.cpu.dcache.tags.power_state.pwrStateResidencyTicks::UNDEFINED  70749856500                       # Cumulative time (in ticks) in various power states
system.cpu.dtb.instHits                             0                       # ITB inst hits
system.cpu.dtb.instMisses                           0                       # ITB inst misses
system.cpu.dtb.readHits                             0                       # DTB read hits
system.cpu.dtb.readMisses                           0                       # DTB read misses
system.cpu.dtb.writeHits                            0                       # DTB write hits
system.cpu.dtb.writeMisses                          0                       # DTB write misses
system.cpu.dtb.inserts                              0                       # Number of times an entry is inserted into the TLB
system.cpu.dtb.flushTlb                             0                       # Number of times complete TLB was flushed
system.cpu.dtb.flushTlbMva                          0                       # Number of times TLB was flushed by MVA
system.cpu.dtb.flushTlbMvaAsid                      0                       # Number of times TLB was flushed by MVA & ASID
system.cpu.dtb.flushTlbAsid                         0                       # Number of times TLB was flushed by ASID
system.cpu.dtb.flushedEntries                       0                       # Number of entries that have been flushed from TLB
system.cpu.dtb.alignFaults                          0                       # Number of TLB faults due to alignment restrictions
system.cpu.dtb.prefetchFaults                       0                       # Number of TLB faults due to prefetch
system.cpu.dtb.domainFaults                         0                       # Number of TLB faults due to domain restrictions
system.cpu.dtb.permsFaults                          0                       # Number of TLB faults due to permissions restrictions
system.cpu.dtb.readAccesses                         0                       # DTB read accesses
system.cpu.dtb.writeAccesses                        0                       # DTB write accesses
system.cpu.dtb.instAccesses                         0                       # ITB inst accesses
system.cpu.dtb.hits                                 0                       # Total TLB (inst and data) hits
system.cpu.dtb.misses                               0                       # Total TLB (inst and data) misses
system.cpu.dtb.accesses                             0                       # Total TLB (inst and data) accesses
system.cpu.dtb.stage2_mmu.stage2_tlb.instHits            0                       # ITB inst hits
system.cpu.dtb.stage2_mmu.stage2_tlb.instMisses            0                       # ITB inst misses
system.cpu.dtb.stage2_mmu.stage2_tlb.readHits            0                       # DTB read hits
system.cpu.dtb.stage2_mmu.stage2_tlb.readMisses            0                       # DTB read misses
system.cpu.dtb.stage2_mmu.stage2_tlb.writeHits            0                       # DTB write hits
system.cpu.dtb.stage2_mmu.stage2_tlb.writeMisses            0                       # DTB write misses
system.cpu.dtb.stage2_mmu.stage2_tlb.inserts            0                       # Number of times an entry is inserted into the TLB
system.cpu.dtb.stage2_mmu.stage2_tlb.flushTlb            0                       # Number of times complete TLB was flushed
system.cpu.dtb.stage2_mmu.stage2_tlb.flushTlbMva            0                       # Number of times TLB was flushed by MVA
system.cpu.dtb.stage2_mmu.stage2_tlb.flushTlbMvaAsid            0                       # Number of times TLB was flushed by MVA & ASID
system.cpu.dtb.stage2_mmu.stage2_tlb.flushTlbAsid            0                       # Number of times TLB was flushed by ASID
system.cpu.dtb.stage2_mmu.stage2_tlb.flushedEntries            0                       # Number of entries that have been flushed from TLB
system.cpu.dtb.stage2_mmu.stage2_tlb.alignFaults            0                       # Number of TLB faults due to alignment restrictions
system.cpu.dtb.stage2_mmu.stage2_tlb.prefetchFaults            0                       # Number of TLB faults due to prefetch
system.cpu.dtb.stage2_mmu.stage2_tlb.domainFaults            0                       # Number of TLB faults due to domain restrictions
system.cpu.dtb.stage2_mmu.stage2_tlb.permsFaults            0                       # Number of TLB faults due to permissions restrictions
system.cpu.dtb.stage2_mmu.stage2_tlb.readAccesses            0                       # DTB read accesses
system.cpu.dtb.stage2_mmu.stage2_tlb.writeAccesses            0                       # DTB write accesses
system.cpu.dtb.stage2_mmu.stage2_tlb.instAccesses            0                       # ITB inst accesses
system.cpu.dtb.stage2_mmu.stage2_tlb.hits            0                       # Total TLB (inst and data) hits
system.cpu.dtb.stage2_mmu.stage2_tlb.misses            0                       # Total TLB (inst and data) misses
system.cpu.dtb.stage2_mmu.stage2_tlb.accesses            0                       # Total TLB (inst and data) accesses
system.cpu.dtb.stage2_mmu.stage2_tlb.walker.walks            0                       # Table walker walks requested
system.cpu.dtb.stage2_mmu.stage2_tlb.walker.requestOrigin_Requested::Data            0                       # Table walker requests started/completed, data/inst
system.cpu.dtb.stage2_mmu.stage2_tlb.walker.requestOrigin_Requested::Inst            0                       # Table walker requests started/completed, data/inst
system.cpu.dtb.stage2_mmu.stage2_tlb.walker.requestOrigin_Requested::total            0                       # Table walker requests started/completed, data/inst
system.cpu.dtb.stage2_mmu.stage2_tlb.walker.requestOrigin_Completed::Data            0                       # Table walker requests started/completed, data/inst
system.cpu.dtb.stage2_mmu.stage2_tlb.walker.requestOrigin_Completed::Inst            0                       # Table walker requests started/completed, data/inst
system.cpu.dtb.stage2_mmu.stage2_tlb.walker.requestOrigin_Completed::total            0                       # Table walker requests started/completed, data/inst
system.cpu.dtb.stage2_mmu.stage2_tlb.walker.requestOrigin::total            0                       # Table walker requests started/completed, data/inst
system.cpu.dtb.stage2_mmu.stage2_tlb.walker.power_state.pwrStateResidencyTicks::UNDEFINED  70749856500                       # Cumulative time (in ticks) in various power states
system.cpu.dtb.walker.walks                         0                       # Table walker walks requested
system.cpu.dtb.walker.requestOrigin_Requested::Data            0                       # Table walker requests started/completed, data/inst
system.cpu.dtb.walker.requestOrigin_Requested::Inst            0                       # Table walker requests started/completed, data/inst
system.cpu.dtb.walker.requestOrigin_Requested::total            0                       # Table walker requests started/completed, data/inst
system.cpu.dtb.walker.requestOrigin_Completed::Data            0                       # Table walker requests started/completed, data/inst
system.cpu.dtb.walker.requestOrigin_Completed::Inst            0                       # Table walker requests started/completed, data/inst
system.cpu.dtb.walker.requestOrigin_Completed::total            0                       # Table walker requests started/completed, data/inst
system.cpu.dtb.walker.requestOrigin::total            0                       # Table walker requests started/completed, data/inst
system.cpu.dtb.walker.power_state.pwrStateResidencyTicks::UNDEFINED  70749856500                       # Cumulative time (in ticks) in various power states
system.cpu.fetch2.intInstructions            37763168                       # Number of integer instructions successfully decoded
system.cpu.fetch2.fpInstructions                    0                       # Number of floating point instructions successfully decoded
system.cpu.fetch2.vecInstructions                   0                       # Number of SIMD instructions successfully decoded
system.cpu.fetch2.loadInstructions           17245250                       # Number of memory load instructions successfully decoded
system.cpu.fetch2.storeInstructions          14150771                       # Number of memory store instructions successfully decoded
system.cpu.fetch2.amoInstructions                   0                       # Number of memory atomic instructions successfully decoded
system.cpu.icache.demand_hits::.cpu.inst     15468384                       # number of demand (read+write) hits
system.cpu.icache.demand_hits::total         15468384                       # number of demand (read+write) hits
system.cpu.icache.overall_hits::.cpu.inst     15468384                       # number of overall hits
system.cpu.icache.overall_hits::total        15468384                       # number of overall hits
system.cpu.icache.demand_misses::.cpu.inst         5710                       # number of demand (read+write) misses
system.cpu.icache.demand_misses::total           5710                       # number of demand (read+write) misses
system.cpu.icache.overall_misses::.cpu.inst         5710                       # number of overall misses
system.cpu.icache.overall_misses::total          5710                       # number of overall misses
system.cpu.icache.demand_miss_latency::.cpu.inst    151184500                       # number of demand (read+write) miss cycles
system.cpu.icache.demand_miss_latency::total    151184500                       # number of demand (read+write) miss cycles
system.cpu.icache.overall_miss_latency::.cpu.inst    151184500                       # number of overall miss cycles
system.cpu.icache.overall_miss_latency::total    151184500                       # number of overall miss cycles
system.cpu.icache.demand_accesses::.cpu.inst     15474094                       # number of demand (read+write) accesses
system.cpu.icache.demand_accesses::total     15474094                       # number of demand (read+write) accesses
system.cpu.icache.overall_accesses::.cpu.inst     15474094                       # number of overall (read+write) accesses
system.cpu.icache.overall_accesses::total     15474094                       # number of overall (read+write) accesses
system.cpu.icache.demand_miss_rate::.cpu.inst     0.000369                       # miss rate for demand accesses
system.cpu.icache.demand_miss_rate::total     0.000369                       # miss rate for demand accesses
system.cpu.icache.overall_miss_rate::.cpu.inst     0.000369                       # miss rate for overall accesses
system.cpu.icache.overall_miss_rate::total     0.000369                       # miss rate for overall accesses
system.cpu.icache.demand_avg_miss_latency::.cpu.inst 26477.145359                       # average overall miss latency
system.cpu.icache.demand_avg_miss_latency::total 26477.145359                       # average overall miss latency
system.cpu.icache.overall_avg_miss_latency::.cpu.inst 26477.145359                       # average overall miss latency
system.cpu.icache.overall_avg_miss_latency::total 26477.145359                       # average overall miss latency
system.cpu.icache.blocked_cycles::no_mshrs            0                       # number of cycles access was blocked
system.cpu.icache.blocked_cycles::no_targets            0                       # number of cycles access was blocked
system.cpu.icache.blocked::no_mshrs                 0                       # number of cycles access was blocked
system.cpu.icache.blocked::no_targets               0                       # number of cycles access was blocked
system.cpu.icache.avg_blocked_cycles::no_mshrs          nan                       # average number of cycles each access was blocked
system.cpu.icache.avg_blocked_cycles::no_targets          nan                       # average number of cycles each access was blocked
system.cpu.icache.writebacks::.writebacks         5454                       # number of writebacks
system.cpu.icache.writebacks::total              5454                       # number of writebacks
system.cpu.icache.demand_mshr_misses::.cpu.inst         5710                       # number of demand (read+write) MSHR misses
system.cpu.icache.demand_mshr_misses::total         5710                       # number of demand (read+write) MSHR misses
system.cpu.icache.overall_mshr_misses::.cpu.inst         5710                       # number of overall MSHR misses
system.cpu.icache.overall_mshr_misses::total         5710                       # number of overall MSHR misses
system.cpu.icache.demand_mshr_miss_latency::.cpu.inst    145474500                       # number of demand (read+write) MSHR miss cycles
system.cpu.icache.demand_mshr_miss_latency::total    145474500                       # number of demand (read+write) MSHR miss cycles
system.cpu.icache.overall_mshr_miss_latency::.cpu.inst    145474500                       # number of overall MSHR miss cycles
system.cpu.icache.overall_mshr_miss_latency::total    145474500                       # number of overall MSHR miss cycles
system.cpu.icache.demand_mshr_miss_rate::.cpu.inst     0.000369                       # mshr miss rate for demand accesses
system.cpu.icache.demand_mshr_miss_rate::total     0.000369                       # mshr miss rate for demand accesses
system.cpu.icache.overall_mshr_miss_rate::.cpu.inst     0.000369                       # mshr miss rate for overall accesses
system.cpu.icache.overall_mshr_miss_rate::total     0.000369                       # mshr miss rate for overall accesses
system.cpu.icache.demand_avg_mshr_miss_latency::.cpu.inst 25477.145359                       # average overall mshr miss latency
system.cpu.icache.demand_avg_mshr_miss_latency::total 25477.145359                       # average overall mshr miss latency
system.cpu.icache.overall_avg_mshr_miss_latency::.cpu.inst 25477.145359                       # average overall mshr miss latency
system.cpu.icache.overall_avg_mshr_miss_latency::total 25477.145359                       # average overall mshr miss latency
system.cpu.icache.replacements                   5454                       # number of replacements
system.cpu.icache.ReadReq_hits::.cpu.inst     15468384                       # number of ReadReq hits
system.cpu.icache.ReadReq_hits::total        15468384                       # number of ReadReq hits
system.cpu.icache.ReadReq_misses::.cpu.inst         5710                       # number of ReadReq misses
system.cpu.icache.ReadReq_misses::total          5710                       # number of ReadReq misses
system.cpu.icache.ReadReq_miss_latency::.cpu.inst    151184500                       # number of ReadReq miss cycles
system.cpu.icache.ReadReq_miss_latency::total    151184500                       # number of ReadReq miss cycles
system.cpu.icache.ReadReq_accesses::.cpu.inst     15474094                       # number of ReadReq accesses(hits+misses)
system.cpu.icache.ReadReq_accesses::total     15474094                       # number of ReadReq accesses(hits+misses)
system.cpu.icache.ReadReq_miss_rate::.cpu.inst     0.000369                       # miss rate for ReadReq accesses
system.cpu.icache.ReadReq_miss_rate::total     0.000369                       # miss rate for ReadReq accesses
system.cpu.icache.ReadReq_avg_miss_latency::.cpu.inst 26477.145359                       # average ReadReq miss latency
system.cpu.icache.ReadReq_avg_miss_latency::total 26477.145359                       # average ReadReq miss latency
system.cpu.icache.ReadReq_mshr_misses::.cpu.inst         5710                       # number of ReadReq MSHR misses
system.cpu.icache.ReadReq_mshr_misses::total         5710                       # number of ReadReq MSHR misses
system.cpu.icache.ReadReq_mshr_miss_latency::.cpu.inst    145474500                       # number of ReadReq MSHR miss cycles
system.cpu.icache.ReadReq_mshr_miss_latency::total    145474500                       # number of ReadReq MSHR miss cycles
system.cpu.icache.ReadReq_mshr_miss_rate::.cpu.inst     0.000369                       # mshr miss rate for ReadReq accesses
system.cpu.icache.ReadReq_mshr_miss_rate::total     0.000369                       # mshr miss rate for ReadReq accesses
system.cpu.icache.ReadReq_avg_mshr_miss_latency::.cpu.inst 25477.145359                       # average ReadReq mshr miss latency
system.cpu.icache.ReadReq_avg_mshr_miss_latency::total 25477.145359                       # average ReadReq mshr miss latency
system.cpu.icache.power_state.pwrStateResidencyTicks::UNDEFINED  70749856500                       # Cumulative time (in ticks) in various power states
system.cpu.icache.tags.tagsinuse           255.936013                       # Cycle average of tags in use
system.cpu.icache.tags.total_refs            15474094                       # Total number of references to valid blocks.
system.cpu.icache.tags.sampled_refs              5710                       # Sample count of references to valid blocks.
system.cpu.icache.tags.avg_refs           2709.998949                       # Average number of references to valid blocks.
system.cpu.icache.tags.warmup_cycle             87500                       # Cycle when the warmup percentage was hit.
system.cpu.icache.tags.occ_blocks::.cpu.inst   255.936013                       # Average occupied blocks per requestor
system.cpu.icache.tags.occ_percent::.cpu.inst     0.999750                       # Average percentage of cache occupancy
system.cpu.icache.tags.occ_percent::total     0.999750                       # Average percentage of cache occupancy
system.cpu.icache.tags.occ_task_id_blocks::1024          256                       # Occupied blocks per task id
system.cpu.icache.tags.age_task_id_blocks_1024::2            6                       # Occupied blocks per task id
system.cpu.icache.tags.age_task_id_blocks_1024::3           18                       # Occupied blocks per task id
system.cpu.icache.tags.age_task_id_blocks_1024::4          232                       # Occupied blocks per task id
system.cpu.icache.tags.occ_task_id_percent::1024            1                       # Percentage of cache occupancy per task id
system.cpu.icache.tags.tag_accesses          30953898                       # Number of tag accesses
system.cpu.icache.tags.data_accesses         30953898                       # Number of data accesses
system.cpu.icache.tags.power_state.pwrStateResidencyTicks::UNDEFINED  70749856500                       # Cumulative time (in ticks) in various power states
system.cpu.itb.instHits                             0                       # ITB inst hits
system.cpu.itb.instMisses                           0                       # ITB inst misses
system.cpu.itb.readHits                             0                       # DTB read hits
system.cpu.itb.readMisses                           0                       # DTB read misses
system.cpu.itb.writeHits                            0                       # DTB write hits
system.cpu.itb.writeMisses                          0                       # DTB write misses
system.cpu.itb.inserts                              0                       # Number of times an entry is inserted into the TLB
system.cpu.itb.flushTlb                             0                       # Number of times complete TLB was flushed
system.cpu.itb.flushTlbMva                          0                       # Number of times TLB was flushed by MVA
system.cpu.itb.flushTlbMvaAsid                      0                       # Number of times TLB was flushed by MVA & ASID
system.cpu.itb.flushTlbAsid                         0                       # Number of times TLB was flushed by ASID
system.cpu.itb.flushedEntries                       0                       # Number of entries that have been flushed from TLB
system.cpu.itb.alignFaults                          0                       # Number of TLB faults due to alignment restrictions
system.cpu.itb.prefetchFaults                       0                       # Number of TLB faults due to prefetch
system.cpu.itb.domainFaults                         0                       # Number of TLB faults due to domain restrictions
system.cpu.itb.permsFaults                          0                       # Number of TLB faults due to permissions restrictions
system.cpu.itb.readAccesses                         0                       # DTB read accesses
system.cpu.itb.writeAccesses                        0                       # DTB write accesses
system.cpu.itb.instAccesses                         0                       # ITB inst accesses
system.cpu.itb.hits                                 0                       # Total TLB (inst and data) hits
system.cpu.itb.misses                               0                       # Total TLB (inst and data) misses
system.cpu.itb.accesses                             0                       # Total TLB (inst and data) accesses
system.cpu.itb.stage2_mmu.stage2_tlb.instHits            0                       # ITB inst hits
system.cpu.itb.stage2_mmu.stage2_tlb.instMisses            0                       # ITB inst misses
system.cpu.itb.stage2_mmu.stage2_tlb.readHits            0                       # DTB read hits
system.cpu.itb.stage2_mmu.stage2_tlb.readMisses            0                       # DTB read misses
system.cpu.itb.stage2_mmu.stage2_tlb.writeHits            0                       # DTB write hits
system.cpu.itb.stage2_mmu.stage2_tlb.writeMisses            0                       # DTB write misses
system.cpu.itb.stage2_mmu.stage2_tlb.inserts            0                       # Number of times an entry is inserted into the TLB
system.cpu.itb.stage2_mmu.stage2_tlb.flushTlb            0                       # Number of times complete TLB was flushed
system.cpu.itb.stage2_mmu.stage2_tlb.flushTlbMva            0                       # Number of times TLB was flushed by MVA
system.cpu.itb.stage2_mmu.stage2_tlb.flushTlbMvaAsid            0                       # Number of times TLB was flushed by MVA & ASID
system.cpu.itb.stage2_mmu.stage2_tlb.flushTlbAsid            0                       # Number of times TLB was flushed by ASID
system.cpu.itb.stage2_mmu.stage2_tlb.flushedEntries            0                       # Number of entries that have been flushed from TLB
system.cpu.itb.stage2_mmu.stage2_tlb.alignFaults            0                       # Number of TLB faults due to alignment restrictions
system.cpu.itb.stage2_mmu.stage2_tlb.prefetchFaults            0                       # Number of TLB faults due to prefetch
system.cpu.itb.stage2_mmu.stage2_tlb.domainFaults            0                       # Number of TLB faults due to domain restrictions
system.cpu.itb.stage2_mmu.stage2_tlb.permsFaults            0                       # Number of TLB faults due to permissions restrictions
system.cpu.itb.stage2_mmu.stage2_tlb.readAccesses            0                       # DTB read accesses
system.cpu.itb.stage2_mmu.stage2_tlb.writeAccesses            0                       # DTB write accesses
system.cpu.itb.stage2_mmu.stage2_tlb.instAccesses            0                       # ITB inst accesses
system.cpu.itb.stage2_mmu.stage2_tlb.hits            0                       # Total TLB (inst and data) hits
system.cpu.itb.stage2_mmu.stage2_tlb.misses            0                       # Total TLB (inst and data) misses
system.cpu.itb.stage2_mmu.stage2_tlb.accesses            0                       # Total TLB (inst and data) accesses
system.cpu.itb.stage2_mmu.stage2_tlb.walker.walks            0                       # Table walker walks requested
system.cpu.itb.stage2_mmu.stage2_tlb.walker.requestOrigin_Requested::Data            0                       # Table walker requests started/completed, data/inst
system.cpu.itb.stage2_mmu.stage2_tlb.walker.requestOrigin_Requested::Inst            0                       # Table walker requests started/completed, data/inst
system.cpu.itb.stage2_mmu.stage2_tlb.walker.requestOrigin_Requested::total            0                       # Table walker requests started/completed, data/inst
system.cpu.itb.stage2_mmu.stage2_tlb.walker.requestOrigin_Completed::Data            0                       # Table walker requests started/completed, data/inst
system.cpu.itb.stage2_mmu.stage2_tlb.walker.requestOrigin_Completed::Inst            0                       # Table walker requests started/completed, data/inst
system.cpu.itb.stage2_mmu.stage2_tlb.walker.requestOrigin_Completed::total            0                       # Table walker requests started/completed, data/inst
system.cpu.itb.stage2_mmu.stage2_tlb.walker.requestOrigin::total            0                       # Table walker requests started/completed, data/inst
system.cpu.itb.stage2_mmu.stage2_tlb.walker.power_state.pwrStateResidencyTicks::UNDEFINED  70749856500                       # Cumulative time (in ticks) in various power states
system.cpu.itb.walker.walks                         0                       # Table walker walks requested
system.cpu.itb.walker.requestOrigin_Requested::Data            0                       # Table walker requests started/completed, data/inst
system.cpu.itb.walker.requestOrigin_Requested::Inst            0                       # Table walker requests started/completed, data/inst
system.cpu.itb.walker.requestOrigin_Requested::total            0                       # Table walker requests started/completed, data/inst
system.cpu.itb.walker.requestOrigin_Completed::Data            0                       # Table walker requests started/completed, data/inst
system.cpu.itb.walker.requestOrigin_Completed::Inst            0                       # Table walker requests started/completed, data/inst
system.cpu.itb.walker.requestOrigin_Completed::total            0                       # Table walker requests started/completed, data/inst
system.cpu.itb.walker.requestOrigin::total            0                       # Table walker requests started/completed, data/inst
system.cpu.itb.walker.power_state.pwrStateResidencyTicks::UNDEFINED  70749856500                       # Cumulative time (in ticks) in various power states
system.cpu.power_state.pwrStateResidencyTicks::ON  70749856500                       # Cumulative time (in ticks) in various power states
system.cpu.thread0.numInsts                 100000000                       # Number of Instructions committed
system.cpu.thread0.numOps                   116826593                       # Number of Ops committed
system.cpu.thread0.numMemRefs                       0                       # Number of Memory References
system.cpu_clk_domain.clock                       500                       # Clock period in ticks
system.cpu_voltage_domain.voltage                   1                       # Voltage in Volts
system.l2.demand_hits::.cpu.inst                 4535                       # number of demand (read+write) hits
system.l2.demand_hits::.cpu.data               233265                       # number of demand (read+write) hits
system.l2.demand_hits::total                   237800                       # number of demand (read+write) hits
system.l2.overall_hits::.cpu.inst                4535                       # number of overall hits
system.l2.overall_hits::.cpu.data              233265                       # number of overall hits
system.l2.overall_hits::total                  237800                       # number of overall hits
system.l2.demand_misses::.cpu.inst               1175                       # number of demand (read+write) misses
system.l2.demand_misses::.cpu.data               4478                       # number of demand (read+write) misses
system.l2.demand_misses::total                   5653                       # number of demand (read+write) misses
system.l2.overall_misses::.cpu.inst              1175                       # number of overall misses
system.l2.overall_misses::.cpu.data              4478                       # number of overall misses
system.l2.overall_misses::total                  5653                       # number of overall misses
system.l2.demand_miss_latency::.cpu.inst     88689000                       # number of demand (read+write) miss cycles
system.l2.demand_miss_latency::.cpu.data    342066500                       # number of demand (read+write) miss cycles
system.l2.demand_miss_latency::total        430755500                       # number of demand (read+write) miss cycles
system.l2.overall_miss_latency::.cpu.inst     88689000                       # number of overall miss cycles
system.l2.overall_miss_latency::.cpu.data    342066500                       # number of overall miss cycles
system.l2.overall_miss_latency::total       430755500                       # number of overall miss cycles
system.l2.demand_accesses::.cpu.inst             5710                       # number of demand (read+write) accesses
system.l2.demand_accesses::.cpu.data           237743                       # number of demand (read+write) accesses
system.l2.demand_accesses::total               243453                       # number of demand (read+write) accesses
system.l2.overall_accesses::.cpu.inst            5710                       # number of overall (read+write) accesses
system.l2.overall_accesses::.cpu.data          237743                       # number of overall (read+write) accesses
system.l2.overall_accesses::total              243453                       # number of overall (read+write) accesses
system.l2.demand_miss_rate::.cpu.inst        0.205779                       # miss rate for demand accesses
system.l2.demand_miss_rate::.cpu.data        0.018835                       # miss rate for demand accesses
system.l2.demand_miss_rate::total            0.023220                       # miss rate for demand accesses
system.l2.overall_miss_rate::.cpu.inst       0.205779                       # miss rate for overall accesses
system.l2.overall_miss_rate::.cpu.data       0.018835                       # miss rate for overall accesses
system.l2.overall_miss_rate::total           0.023220                       # miss rate for overall accesses
system.l2.demand_avg_miss_latency::.cpu.inst        75480                       # average overall miss latency
system.l2.demand_avg_miss_latency::.cpu.data 76388.231353                       # average overall miss latency
system.l2.demand_avg_miss_latency::total 76199.451619                       # average overall miss latency
system.l2.overall_avg_miss_latency::.cpu.inst        75480                       # average overall miss latency
system.l2.overall_avg_miss_latency::.cpu.data 76388.231353                       # average overall miss latency
system.l2.overall_avg_miss_latency::total 76199.451619                       # average overall miss latency
system.l2.blocked_cycles::no_mshrs                  0                       # number of cycles access was blocked
system.l2.blocked_cycles::no_targets                0                       # number of cycles access was blocked
system.l2.blocked::no_mshrs                         0                       # number of cycles access was blocked
system.l2.blocked::no_targets                       0                       # number of cycles access was blocked
system.l2.avg_blocked_cycles::no_mshrs            nan                       # average number of cycles each access was blocked
system.l2.avg_blocked_cycles::no_targets          nan                       # average number of cycles each access was blocked
system.l2.demand_mshr_hits::.cpu.inst               2                       # number of demand (read+write) MSHR hits
system.l2.demand_mshr_hits::.cpu.data               5                       # number of demand (read+write) MSHR hits
system.l2.demand_mshr_hits::total                   7                       # number of demand (read+write) MSHR hits
system.l2.overall_mshr_hits::.cpu.inst              2                       # number of overall MSHR hits
system.l2.overall_mshr_hits::.cpu.data              5                       # number of overall MSHR hits
system.l2.overall_mshr_hits::total                  7                       # number of overall MSHR hits
system.l2.demand_mshr_misses::.cpu.inst          1173                       # number of demand (read+write) MSHR misses
system.l2.demand_mshr_misses::.cpu.data          4473                       # number of demand (read+write) MSHR misses
system.l2.demand_mshr_misses::total              5646                       # number of demand (read+write) MSHR misses
system.l2.overall_mshr_misses::.cpu.inst         1173                       # number of overall MSHR misses
system.l2.overall_mshr_misses::.cpu.data         4473                       # number of overall MSHR misses
system.l2.overall_mshr_misses::total             5646                       # number of overall MSHR misses
system.l2.demand_mshr_miss_latency::.cpu.inst     76863000                       # number of demand (read+write) MSHR miss cycles
system.l2.demand_mshr_miss_latency::.cpu.data    297004000                       # number of demand (read+write) MSHR miss cycles
system.l2.demand_mshr_miss_latency::total    373867000                       # number of demand (read+write) MSHR miss cycles
system.l2.overall_mshr_miss_latency::.cpu.inst     76863000                       # number of overall MSHR miss cycles
system.l2.overall_mshr_miss_latency::.cpu.data    297004000                       # number of overall MSHR miss cycles
system.l2.overall_mshr_miss_latency::total    373867000                       # number of overall MSHR miss cycles
system.l2.demand_mshr_miss_rate::.cpu.inst     0.205429                       # mshr miss rate for demand accesses
system.l2.demand_mshr_miss_rate::.cpu.data     0.018814                       # mshr miss rate for demand accesses
system.l2.demand_mshr_miss_rate::total       0.023191                       # mshr miss rate for demand accesses
system.l2.overall_mshr_miss_rate::.cpu.inst     0.205429                       # mshr miss rate for overall accesses
system.l2.overall_mshr_miss_rate::.cpu.data     0.018814                       # mshr miss rate for overall accesses
system.l2.overall_mshr_miss_rate::total      0.023191                       # mshr miss rate for overall accesses
system.l2.demand_avg_mshr_miss_latency::.cpu.inst 65526.854220                       # average overall mshr miss latency
system.l2.demand_avg_mshr_miss_latency::.cpu.data 66399.284596                       # average overall mshr miss latency
system.l2.demand_avg_mshr_miss_latency::total 66218.030464                       # average overall mshr miss latency
system.l2.overall_avg_mshr_miss_latency::.cpu.inst 65526.854220                       # average overall mshr miss latency
system.l2.overall_avg_mshr_miss_latency::.cpu.data 66399.284596                       # average overall mshr miss latency
system.l2.overall_avg_mshr_miss_latency::total 66218.030464                       # average overall mshr miss latency
system.l2.replacements                              0                       # number of replacements
system.l2.WritebackDirty_hits::.writebacks       232298                       # number of WritebackDirty hits
system.l2.WritebackDirty_hits::total           232298                       # number of WritebackDirty hits
system.l2.WritebackDirty_accesses::.writebacks       232298                       # number of WritebackDirty accesses(hits+misses)
system.l2.WritebackDirty_accesses::total       232298                       # number of WritebackDirty accesses(hits+misses)
system.l2.WritebackClean_hits::.writebacks         5287                       # number of WritebackClean hits
system.l2.WritebackClean_hits::total             5287                       # number of WritebackClean hits
system.l2.WritebackClean_accesses::.writebacks         5287                       # number of WritebackClean accesses(hits+misses)
system.l2.WritebackClean_accesses::total         5287                       # number of WritebackClean accesses(hits+misses)
system.l2.ReadExReq_hits::.cpu.data            183593                       # number of ReadExReq hits
system.l2.ReadExReq_hits::total                183593                       # number of ReadExReq hits
system.l2.ReadExReq_misses::.cpu.data            3681                       # number of ReadExReq misses
system.l2.ReadExReq_misses::total                3681                       # number of ReadExReq misses
system.l2.ReadExReq_miss_latency::.cpu.data    278050500                       # number of ReadExReq miss cycles
system.l2.ReadExReq_miss_latency::total     278050500                       # number of ReadExReq miss cycles
system.l2.ReadExReq_accesses::.cpu.data        187274                       # number of ReadExReq accesses(hits+misses)
system.l2.ReadExReq_accesses::total            187274                       # number of ReadExReq accesses(hits+misses)
system.l2.ReadExReq_miss_rate::.cpu.data     0.019656                       # miss rate for ReadExReq accesses
system.l2.ReadExReq_miss_rate::total         0.019656                       # miss rate for ReadExReq accesses
system.l2.ReadExReq_avg_miss_latency::.cpu.data 75536.674817                       # average ReadExReq miss latency
system.l2.ReadExReq_avg_miss_latency::total 75536.674817                       # average ReadExReq miss latency
system.l2.ReadExReq_mshr_misses::.cpu.data         3681                       # number of ReadExReq MSHR misses
system.l2.ReadExReq_mshr_misses::total           3681                       # number of ReadExReq MSHR misses
system.l2.ReadExReq_mshr_miss_latency::.cpu.data    241240500                       # number of ReadExReq MSHR miss cycles
system.l2.ReadExReq_mshr_miss_latency::total    241240500                       # number of ReadExReq MSHR miss cycles
system.l2.ReadExReq_mshr_miss_rate::.cpu.data     0.019656                       # mshr miss rate for ReadExReq accesses
system.l2.ReadExReq_mshr_miss_rate::total     0.019656                       # mshr miss rate for ReadExReq accesses
system.l2.ReadExReq_avg_mshr_miss_latency::.cpu.data 65536.674817                       # average ReadExReq mshr miss latency
system.l2.ReadExReq_avg_mshr_miss_latency::total 65536.674817                       # average ReadExReq mshr miss latency
system.l2.ReadCleanReq_hits::.cpu.inst           4535                       # number of ReadCleanReq hits
system.l2.ReadCleanReq_hits::total               4535                       # number of ReadCleanReq hits
system.l2.ReadCleanReq_misses::.cpu.inst         1175                       # number of ReadCleanReq misses
system.l2.ReadCleanReq_misses::total             1175                       # number of ReadCleanReq misses
system.l2.ReadCleanReq_miss_latency::.cpu.inst     88689000                       # number of ReadCleanReq miss cycles
system.l2.ReadCleanReq_miss_latency::total     88689000                       # number of ReadCleanReq miss cycles
system.l2.ReadCleanReq_accesses::.cpu.inst         5710                       # number of ReadCleanReq accesses(hits+misses)
system.l2.ReadCleanReq_accesses::total           5710                       # number of ReadCleanReq accesses(hits+misses)
system.l2.ReadCleanReq_miss_rate::.cpu.inst     0.205779                       # miss rate for ReadCleanReq accesses
system.l2.ReadCleanReq_miss_rate::total      0.205779                       # miss rate for ReadCleanReq accesses
system.l2.ReadCleanReq_avg_miss_latency::.cpu.inst        75480                       # average ReadCleanReq miss latency
system.l2.ReadCleanReq_avg_miss_latency::total        75480                       # average ReadCleanReq miss latency
system.l2.ReadCleanReq_mshr_hits::.cpu.inst            2                       # number of ReadCleanReq MSHR hits
system.l2.ReadCleanReq_mshr_hits::total             2                       # number of ReadCleanReq MSHR hits
system.l2.ReadCleanReq_mshr_misses::.cpu.inst         1173                       # number of ReadCleanReq MSHR misses
system.l2.ReadCleanReq_mshr_misses::total         1173                       # number of ReadCleanReq MSHR misses
system.l2.ReadCleanReq_mshr_miss_latency::.cpu.inst     76863000                       # number of ReadCleanReq MSHR miss cycles
system.l2.ReadCleanReq_mshr_miss_latency::total     76863000                       # number of ReadCleanReq MSHR miss cycles
system.l2.ReadCleanReq_mshr_miss_rate::.cpu.inst     0.205429                       # mshr miss rate for ReadCleanReq accesses
system.l2.ReadCleanReq_mshr_miss_rate::total     0.205429                       # mshr miss rate for ReadCleanReq accesses
system.l2.ReadCleanReq_avg_mshr_miss_latency::.cpu.inst 65526.854220                       # average ReadCleanReq mshr miss latency
system.l2.ReadCleanReq_avg_mshr_miss_latency::total 65526.854220                       # average ReadCleanReq mshr miss latency
system.l2.ReadSharedReq_hits::.cpu.data         49672                       # number of ReadSharedReq hits
system.l2.ReadSharedReq_hits::total             49672                       # number of ReadSharedReq hits
system.l2.ReadSharedReq_misses::.cpu.data          797                       # number of ReadSharedReq misses
system.l2.ReadSharedReq_misses::total             797                       # number of ReadSharedReq misses
system.l2.ReadSharedReq_miss_latency::.cpu.data     64016000                       # number of ReadSharedReq miss cycles
system.l2.ReadSharedReq_miss_latency::total     64016000                       # number of ReadSharedReq miss cycles
system.l2.ReadSharedReq_accesses::.cpu.data        50469                       # number of ReadSharedReq accesses(hits+misses)
system.l2.ReadSharedReq_accesses::total         50469                       # number of ReadSharedReq accesses(hits+misses)
system.l2.ReadSharedReq_miss_rate::.cpu.data     0.015792                       # miss rate for ReadSharedReq accesses
system.l2.ReadSharedReq_miss_rate::total     0.015792                       # miss rate for ReadSharedReq accesses
system.l2.ReadSharedReq_avg_miss_latency::.cpu.data 80321.204517                       # average ReadSharedReq miss latency
system.l2.ReadSharedReq_avg_miss_latency::total 80321.204517                       # average ReadSharedReq miss latency
system.l2.ReadSharedReq_mshr_hits::.cpu.data            5                       # number of ReadSharedReq MSHR hits
system.l2.ReadSharedReq_mshr_hits::total            5                       # number of ReadSharedReq MSHR hits
system.l2.ReadSharedReq_mshr_misses::.cpu.data          792                       # number of ReadSharedReq MSHR misses
system.l2.ReadSharedReq_mshr_misses::total          792                       # number of ReadSharedReq MSHR misses
system.l2.ReadSharedReq_mshr_miss_latency::.cpu.data     55763500                       # number of ReadSharedReq MSHR miss cycles
system.l2.ReadSharedReq_mshr_miss_latency::total     55763500                       # number of ReadSharedReq MSHR miss cycles
system.l2.ReadSharedReq_mshr_miss_rate::.cpu.data     0.015693                       # mshr miss rate for ReadSharedReq accesses
system.l2.ReadSharedReq_mshr_miss_rate::total     0.015693                       # mshr miss rate for ReadSharedReq accesses
system.l2.ReadSharedReq_avg_mshr_miss_latency::.cpu.data 70408.459596                       # average ReadSharedReq mshr miss latency
system.l2.ReadSharedReq_avg_mshr_miss_latency::total 70408.459596                       # average ReadSharedReq mshr miss latency
system.l2.power_state.pwrStateResidencyTicks::UNDEFINED  70749856500                       # Cumulative time (in ticks) in various power states
system.l2.tags.tagsinuse                  5544.816500                       # Cycle average of tags in use
system.l2.tags.total_refs                      483500                       # Total number of references to valid blocks.
system.l2.tags.sampled_refs                      5646                       # Sample count of references to valid blocks.
system.l2.tags.avg_refs                     85.635848                       # Average number of references to valid blocks.
system.l2.tags.warmup_cycle                     77000                       # Cycle when the warmup percentage was hit.
system.l2.tags.occ_blocks::.cpu.inst      1169.614950                       # Average occupied blocks per requestor
system.l2.tags.occ_blocks::.cpu.data      4375.201549                       # Average occupied blocks per requestor
system.l2.tags.occ_percent::.cpu.inst        0.035694                       # Average percentage of cache occupancy
system.l2.tags.occ_percent::.cpu.data        0.133521                       # Average percentage of cache occupancy
system.l2.tags.occ_percent::total            0.169214                       # Average percentage of cache occupancy
system.l2.tags.occ_task_id_blocks::1024          5646                       # Occupied blocks per task id
system.l2.tags.age_task_id_blocks_1024::4         5646                       # Occupied blocks per task id
system.l2.tags.occ_task_id_percent::1024     0.172302                       # Percentage of cache occupancy per task id
system.l2.tags.tag_accesses                   3873702                       # Number of tag accesses
system.l2.tags.data_accesses                  3873702                       # Number of data accesses
system.l2.tags.power_state.pwrStateResidencyTicks::UNDEFINED  70749856500                       # Cumulative time (in ticks) in various power states
system.mem_ctrls.avgPriority_.cpu.inst::samples      1173.00                       # Average QoS priority value for accepted requests
system.mem_ctrls.avgPriority_.cpu.data::samples      4473.00                       # Average QoS priority value for accepted requests
system.mem_ctrls.priorityMinLatency      0.000000018750                       # per QoS priority minimum request to response latency (s)
system.mem_ctrls.priorityMaxLatency      0.000000574000                       # per QoS priority maximum request to response latency (s)
system.mem_ctrls.numReadWriteTurnArounds            0                       # Number of turnarounds from READ to WRITE
system.mem_ctrls.numWriteReadTurnArounds            0                       # Number of turnarounds from WRITE to READ
system.mem_ctrls.numStayReadState               29445                       # Number of times bus staying in READ state
system.mem_ctrls.numStayWriteState                  0                       # Number of times bus staying in WRITE state
system.mem_ctrls.readReqs                        5646                       # Number of read requests accepted
system.mem_ctrls.writeReqs                          0                       # Number of write requests accepted
system.mem_ctrls.readBursts                      5646                       # Number of controller read bursts, including those serviced by the write queue
system.mem_ctrls.writeBursts                        0                       # Number of controller write bursts, including those merged in the write queue
system.mem_ctrls.servicedByWrQ                      0                       # Number of controller read bursts serviced by the write queue
system.mem_ctrls.mergedWrBursts                     0                       # Number of controller write bursts merged with an existing one
system.mem_ctrls.neitherReadNorWriteReqs            0                       # Number of requests that are neither read nor write
system.mem_ctrls.avgRdQLen                       1.00                       # Average read queue length when enqueuing
system.mem_ctrls.avgWrQLen                       0.00                       # Average write queue length when enqueuing
system.mem_ctrls.numRdRetry                         0                       # Number of times read queue was full causing retry
system.mem_ctrls.numWrRetry                         0                       # Number of times write queue was full causing retry
system.mem_ctrls.readPktSize::0                     0                       # Read request sizes (log2)
system.mem_ctrls.readPktSize::1                     0                       # Read request sizes (log2)
system.mem_ctrls.readPktSize::2                     0                       # Read request sizes (log2)
system.mem_ctrls.readPktSize::3                     0                       # Read request sizes (log2)
system.mem_ctrls.readPktSize::4                     0                       # Read request sizes (log2)
system.mem_ctrls.readPktSize::5                     0                       # Read request sizes (log2)
system.mem_ctrls.readPktSize::6                  5646                       # Read request sizes (log2)
system.mem_ctrls.writePktSize::0                    0                       # Write request sizes (log2)
system.mem_ctrls.writePktSize::1                    0                       # Write request sizes (log2)
system.mem_ctrls.writePktSize::2                    0                       # Write request sizes (log2)
system.mem_ctrls.writePktSize::3                    0                       # Write request sizes (log2)
system.mem_ctrls.writePktSize::4                    0                       # Write request sizes (log2)
system.mem_ctrls.writePktSize::5                    0                       # Write request sizes (log2)
system.mem_ctrls.writePktSize::6                    0                       # Write request sizes (log2)
system.mem_ctrls.rdQLenPdf::0                    5203                       # What read queue length does an incoming req see
system.mem_ctrls.rdQLenPdf::1                     415                       # What read queue length does an incoming req see
system.mem_ctrls.rdQLenPdf::2                      26                       # What read queue length does an incoming req see
system.mem_ctrls.rdQLenPdf::3                       2                       # What read queue length does an incoming req see
system.mem_ctrls.rdQLenPdf::4                       0                       # What read queue length does an incoming req see
system.mem_ctrls.rdQLenPdf::5                       0                       # What read queue length does an incoming req see
system.mem_ctrls.rdQLenPdf::6                       0                       # What read queue length does an incoming req see
system.mem_ctrls.rdQLenPdf::7                       0                       # What read queue length does an incoming req see
system.mem_ctrls.rdQLenPdf::8                       0                       # What read queue length does an incoming req see
system.mem_ctrls.rdQLenPdf::9                       0                       # What read queue length does an incoming req see
system.mem_ctrls.rdQLenPdf::10                      0                       # What read queue length does an incoming req see
system.mem_ctrls.rdQLenPdf::11                      0                       # What read queue length does an incoming req see
system.mem_ctrls.rdQLenPdf::12                      0                       # What read queue length does an incoming req see
system.mem_ctrls.rdQLenPdf::13                      0                       # What read queue length does an incoming req see
[...]
system.mem_ctrls.dram.bw_read::.cpu.data      4046256                       # Total read bandwidth from this memory (bytes/s)
system.mem_ctrls.dram.bw_read::total          5107346                       # Total read bandwidth from this memory (bytes/s)
system.mem_ctrls.dram.bw_inst_read::.cpu.inst      1061090                       # Instruction read bandwidth from this memory (bytes/s)
system.mem_ctrls.dram.bw_inst_read::total      1061090                       # Instruction read bandwidth from this memory (bytes/s)
system.mem_ctrls.dram.bw_total::.cpu.inst      1061090                       # Total bandwidth to/from this memory (bytes/s)
system.mem_ctrls.dram.bw_total::.cpu.data      4046256                       # Total bandwidth to/from this memory (bytes/s)
system.mem_ctrls.dram.bw_total::total         5107346                       # Total bandwidth to/from this memory (bytes/s)
system.mem_ctrls.dram.readBursts                 5646                       # Number of DRAM read bursts
system.mem_ctrls.dram.writeBursts                   0                       # Number of DRAM write bursts
system.mem_ctrls.dram.perBankRdBursts::0          420                       # Per bank write bursts
system.mem_ctrls.dram.perBankRdBursts::1          398                       # Per bank write bursts
system.mem_ctrls.dram.perBankRdBursts::2          364                       # Per bank write bursts
system.mem_ctrls.dram.perBankRdBursts::3          335                       # Per bank write bursts
system.mem_ctrls.dram.perBankRdBursts::4          352                       # Per bank write bursts
system.mem_ctrls.dram.perBankRdBursts::5          301                       # Per bank write bursts
system.mem_ctrls.dram.perBankRdBursts::6          375                       # Per bank write bursts
system.mem_ctrls.dram.perBankRdBursts::7          370                       # Per bank write bursts
system.mem_ctrls.dram.perBankRdBursts::8          224                       # Per bank write bursts
system.mem_ctrls.dram.perBankRdBursts::9          330                       # Per bank write bursts
system.mem_ctrls.dram.perBankRdBursts::10          294                       # Per bank write bursts
system.mem_ctrls.dram.perBankRdBursts::11          347                       # Per bank write bursts
system.mem_ctrls.dram.perBankRdBursts::12          371                       # Per bank write bursts
system.mem_ctrls.dram.perBankRdBursts::13          409                       # Per bank write bursts
system.mem_ctrls.dram.perBankRdBursts::14          422                       # Per bank write bursts
system.mem_ctrls.dram.perBankRdBursts::15          334                       # Per bank write bursts
system.mem_ctrls.dram.perBankWrBursts::0            0                       # Per bank write bursts
system.mem_ctrls.dram.perBankWrBursts::1            0                       # Per bank write bursts
system.mem_ctrls.dram.perBankWrBursts::2            0                       # Per bank write bursts
system.mem_ctrls.dram.perBankWrBursts::3            0                       # Per bank write bursts
system.mem_ctrls.dram.perBankWrBursts::4            0                       # Per bank write bursts
system.mem_ctrls.dram.perBankWrBursts::5            0                       # Per bank write bursts
system.mem_ctrls.dram.perBankWrBursts::6            0                       # Per bank write bursts
system.mem_ctrls.dram.perBankWrBursts::7            0                       # Per bank write bursts
system.mem_ctrls.dram.perBankWrBursts::8            0                       # Per bank write bursts
system.mem_ctrls.dram.perBankWrBursts::9            0                       # Per bank write bursts
system.mem_ctrls.dram.perBankWrBursts::10            0                       # Per bank write bursts
system.mem_ctrls.dram.perBankWrBursts::11            0                       # Per bank write bursts
system.mem_ctrls.dram.perBankWrBursts::12            0                       # Per bank write bursts
system.mem_ctrls.dram.perBankWrBursts::13            0                       # Per bank write bursts
system.mem_ctrls.dram.perBankWrBursts::14            0                       # Per bank write bursts
system.mem_ctrls.dram.perBankWrBursts::15            0                       # Per bank write bursts
system.mem_ctrls.dram.totQLat                36211750                       # Total ticks spent queuing
system.mem_ctrls.dram.totBusLat              28230000                       # Total ticks spent in databus transfers
system.mem_ctrls.dram.totMemAccLat          142074250                       # Total ticks spent from burst creation until serviced by the DRAM
system.mem_ctrls.dram.avgQLat                 6413.70                       # Average queueing delay per DRAM burst
system.mem_ctrls.dram.avgBusLat               5000.00                       # Average bus latency per DRAM burst
system.mem_ctrls.dram.avgMemAccLat           25163.70                       # Average memory access latency per DRAM burst
system.mem_ctrls.dram.readRowHits                4753                       # Number of row buffer hits during reads
system.mem_ctrls.dram.writeRowHits                  0                       # Number of row buffer hits during writes
system.mem_ctrls.dram.readRowHitRate            84.18                       # Row buffer hit rate for reads
system.mem_ctrls.dram.writeRowHitRate             nan                       # Row buffer hit rate for writes
system.mem_ctrls.dram.bytesPerActivate::samples          893                       # Bytes accessed per row activation
system.mem_ctrls.dram.bytesPerActivate::mean   404.640538                       # Bytes accessed per row activation
system.mem_ctrls.dram.bytesPerActivate::gmean   259.663011                       # Bytes accessed per row activation
system.mem_ctrls.dram.bytesPerActivate::stdev   346.160234                       # Bytes accessed per row activation
system.mem_ctrls.dram.bytesPerActivate::0-127          205     22.96%     22.96% # Bytes accessed per row activation
system.mem_ctrls.dram.bytesPerActivate::128-255          211     23.63%     46.58% # Bytes accessed per row activation
system.mem_ctrls.dram.bytesPerActivate::256-383           90     10.08%     56.66% # Bytes accessed per row activation
system.mem_ctrls.dram.bytesPerActivate::384-511          110     12.32%     68.98% # Bytes accessed per row activation
system.mem_ctrls.dram.bytesPerActivate::512-639           36      4.03%     73.01% # Bytes accessed per row activation
system.mem_ctrls.dram.bytesPerActivate::640-767           28      3.14%     76.15% # Bytes accessed per row activation
system.mem_ctrls.dram.bytesPerActivate::768-895           33      3.70%     79.84% # Bytes accessed per row activation
system.mem_ctrls.dram.bytesPerActivate::896-1023           62      6.94%     86.79% # Bytes accessed per row activation
system.mem_ctrls.dram.bytesPerActivate::1024-1151          118     13.21%    100.00% # Bytes accessed per row activation
system.mem_ctrls.dram.bytesPerActivate::total          893                       # Bytes accessed per row activation
system.mem_ctrls.dram.bytesRead                361344                       # Total number of bytes read from DRAM
system.mem_ctrls.dram.bytesWritten                  0                       # Total number of bytes written to DRAM
system.mem_ctrls.dram.avgRdBW                5.107346                       # Average DRAM read bandwidth in MiBytes/s
system.mem_ctrls.dram.avgWrBW                       0                       # Average DRAM write bandwidth in MiBytes/s
system.mem_ctrls.dram.peakBW                 12800.00                       # Theoretical peak bandwidth in MiByte/s
system.mem_ctrls.dram.busUtil                    0.04                       # Data bus utilization in percentage
system.mem_ctrls.dram.busUtilRead                0.04                       # Data bus utilization in percentage for reads
system.mem_ctrls.dram.busUtilWrite               0.00                       # Data bus utilization in percentage for writes
system.mem_ctrls.dram.pageHitRate               84.18                       # Row buffer hit rate, read and write combined
system.mem_ctrls.dram.power_state.pwrStateResidencyTicks::UNDEFINED  70749856500                       # Cumulative time (in ticks) in various power states
system.mem_ctrls.dram.rank0.actEnergy         3577140                       # Energy for activate commands per rank (pJ)
system.mem_ctrls.dram.rank0.preEnergy         1901295                       # Energy for precharge commands per rank (pJ)
system.mem_ctrls.dram.rank0.readEnergy       20813100                       # Energy for read commands per rank (pJ)
system.mem_ctrls.dram.rank0.writeEnergy             0                       # Energy for write commands per rank (pJ)
system.mem_ctrls.dram.rank0.refreshEnergy 5584619040.000001                       # Energy for refresh commands per rank (pJ)
system.mem_ctrls.dram.rank0.actBackEnergy   1573210830                       # Energy for active background per rank (pJ)
system.mem_ctrls.dram.rank0.preBackEnergy  25843136160                       # Energy for precharge background per rank (pJ)
system.mem_ctrls.dram.rank0.actPowerDownEnergy            0                       # Energy for active power-down per rank (pJ)
system.mem_ctrls.dram.rank0.prePowerDownEnergy            0                       # Energy for precharge power-down per rank (pJ)
system.mem_ctrls.dram.rank0.selfRefreshEnergy            0                       # Energy for self refresh per rank (pJ)
system.mem_ctrls.dram.rank0.totalEnergy   33027257565                       # Total energy per rank (pJ)
system.mem_ctrls.dram.rank0.averagePower   466.817308                       # Core power per rank (mW)
system.mem_ctrls.dram.rank0.totalIdleTime            0                       # Total Idle time Per DRAM Rank
system.mem_ctrls.dram.rank0.pwrStateTime::IDLE  67171615750                       # Time in different power states
system.mem_ctrls.dram.rank0.pwrStateTime::REF   2362360000                       # Time in different power states
system.mem_ctrls.dram.rank0.pwrStateTime::SREF            0                       # Time in different power states
system.mem_ctrls.dram.rank0.pwrStateTime::PRE_PDN            0                       # Time in different power states
system.mem_ctrls.dram.rank0.pwrStateTime::ACT   1215880750                       # Time in different power states
system.mem_ctrls.dram.rank0.pwrStateTime::ACT_PDN            0                       # Time in different power states
system.mem_ctrls.dram.rank1.actEnergy         2798880                       # Energy for activate commands per rank (pJ)
system.mem_ctrls.dram.rank1.preEnergy         1487640                       # Energy for precharge commands per rank (pJ)
system.mem_ctrls.dram.rank1.readEnergy       19499340                       # Energy for read commands per rank (pJ)
system.mem_ctrls.dram.rank1.writeEnergy             0                       # Energy for write commands per rank (pJ)
system.mem_ctrls.dram.rank1.refreshEnergy 5584619040.000001                       # Energy for refresh commands per rank (pJ)
system.mem_ctrls.dram.rank1.actBackEnergy   1454115600                       # Energy for active background per rank (pJ)
system.mem_ctrls.dram.rank1.preBackEnergy  25943426880                       # Energy for precharge background per rank (pJ)
system.mem_ctrls.dram.rank1.actPowerDownEnergy            0                       # Energy for active power-down per rank (pJ)
system.mem_ctrls.dram.rank1.prePowerDownEnergy            0                       # Energy for precharge power-down per rank (pJ)
system.mem_ctrls.dram.rank1.selfRefreshEnergy            0                       # Energy for self refresh per rank (pJ)
system.mem_ctrls.dram.rank1.totalEnergy   33005947380                       # Total energy per rank (pJ)
system.mem_ctrls.dram.rank1.averagePower   466.516104                       # Core power per rank (mW)
system.mem_ctrls.dram.rank1.totalIdleTime            0                       # Total Idle time Per DRAM Rank
system.mem_ctrls.dram.rank1.pwrStateTime::IDLE  67433533250                       # Time in different power states
system.mem_ctrls.dram.rank1.pwrStateTime::REF   2362360000                       # Time in different power states
system.mem_ctrls.dram.rank1.pwrStateTime::SREF            0                       # Time in different power states
system.mem_ctrls.dram.rank1.pwrStateTime::PRE_PDN            0                       # Time in different power states
system.mem_ctrls.dram.rank1.pwrStateTime::ACT    953963250                       # Time in different power states
system.mem_ctrls.dram.rank1.pwrStateTime::ACT_PDN            0                       # Time in different power states
system.mem_ctrls.power_state.pwrStateResidencyTicks::UNDEFINED  70749856500                       # Cumulative time (in ticks) in various power states
system.membus.trans_dist::ReadResp               1965                       # Transaction distribution
system.membus.trans_dist::ReadExReq              3681                       # Transaction distribution
system.membus.trans_dist::ReadExResp             3681                       # Transaction distribution
system.membus.trans_dist::ReadSharedReq          1965                       # Transaction distribution
system.membus.pkt_count_system.l2.mem_side_port::system.mem_ctrls.port        11292                       # Packet count per connected requestor and responder (bytes)
system.membus.pkt_count::total                  11292                       # Packet count per connected requestor and responder (bytes)
system.membus.pkt_size_system.l2.mem_side_port::system.mem_ctrls.port       361344                       # Cumulative packet size per connected requestor and responder (bytes)
system.membus.pkt_size::total                  361344                       # Cumulative packet size per connected requestor and responder (bytes)
system.membus.snoops                                0                       # Total snoops (count)
system.membus.snoopTraffic                          0                       # Total snoop traffic (bytes)
system.membus.snoop_fanout::samples              5646                       # Request fanout histogram
system.membus.snoop_fanout::mean                    0                       # Request fanout histogram
system.membus.snoop_fanout::stdev                   0                       # Request fanout histogram
system.membus.snoop_fanout::underflows              0      0.00%      0.00% # Request fanout histogram
system.membus.snoop_fanout::0                    5646    100.00%    100.00% # Request fanout histogram
system.membus.snoop_fanout::1                       0      0.00%    100.00% # Request fanout histogram
system.membus.snoop_fanout::overflows               0      0.00%    100.00% # Request fanout histogram
system.membus.snoop_fanout::min_value               0                       # Request fanout histogram
system.membus.snoop_fanout::max_value               0                       # Request fanout histogram
system.membus.snoop_fanout::total                5646                       # Request fanout histogram
system.membus.power_state.pwrStateResidencyTicks::UNDEFINED  70749856500                       # Cumulative time (in ticks) in various power states
system.membus.reqLayer0.occupancy             6952500                       # Layer occupancy (ticks)
system.membus.reqLayer0.utilization               0.0                       # Layer utilization (%)
system.membus.respLayer1.occupancy           29890750                       # Layer occupancy (ticks)
system.membus.respLayer1.utilization              0.0                       # Layer utilization (%)
system.tol2bus.trans_dist::ReadResp             56179                       # Transaction distribution
system.tol2bus.trans_dist::WritebackDirty       232298                       # Transaction distribution
system.tol2bus.trans_dist::WritebackClean         5454                       # Transaction distribution
system.tol2bus.trans_dist::CleanEvict            4933                       # Transaction distribution
system.tol2bus.trans_dist::ReadExReq           187274                       # Transaction distribution
system.tol2bus.trans_dist::ReadExResp          187274                       # Transaction distribution
system.tol2bus.trans_dist::ReadCleanReq          5710                       # Transaction distribution
system.tol2bus.trans_dist::ReadSharedReq        50469                       # Transaction distribution
system.tol2bus.pkt_count_system.cpu.icache.mem_side_port::system.l2.cpu_side_port        16874                       # Packet count per connected requestor and responder (bytes)
system.tol2bus.pkt_count_system.cpu.dcache.mem_side_port::system.l2.cpu_side_port       712717                       # Packet count per connected requestor and responder (bytes)
system.tol2bus.pkt_count::total                729591                       # Packet count per connected requestor and responder (bytes)
system.tol2bus.pkt_size_system.cpu.icache.mem_side_port::system.l2.cpu_side_port       714496                       # Cumulative packet size per connected requestor and responder (bytes)
system.tol2bus.pkt_size_system.cpu.dcache.mem_side_port::system.l2.cpu_side_port     30082624                       # Cumulative packet size per connected requestor and responder (bytes)
system.tol2bus.pkt_size::total               30797120                       # Cumulative packet size per connected requestor and responder (bytes)
system.tol2bus.snoops                               0                       # Total snoops (count)
system.tol2bus.snoopTraffic                         0                       # Total snoop traffic (bytes)
system.tol2bus.snoop_fanout::samples           243453                       # Request fanout histogram
system.tol2bus.snoop_fanout::mean            0.010815                       # Request fanout histogram
system.tol2bus.snoop_fanout::stdev           0.103433                       # Request fanout histogram
system.tol2bus.snoop_fanout::underflows             0      0.00%      0.00% # Request fanout histogram
system.tol2bus.snoop_fanout::0                 240820     98.92%     98.92% # Request fanout histogram
system.tol2bus.snoop_fanout::1                   2633      1.08%    100.00% # Request fanout histogram
system.tol2bus.snoop_fanout::2                      0      0.00%    100.00% # Request fanout histogram
system.tol2bus.snoop_fanout::overflows              0      0.00%    100.00% # Request fanout histogram
system.tol2bus.snoop_fanout::min_value              0                       # Request fanout histogram
system.tol2bus.snoop_fanout::max_value              1                       # Request fanout histogram
system.tol2bus.snoop_fanout::total             243453                       # Request fanout histogram
system.tol2bus.power_state.pwrStateResidencyTicks::UNDEFINED  70749856500                       # Cumulative time (in ticks) in various power states
system.tol2bus.reqLayer0.occupancy          480821000                       # Layer occupancy (ticks)
system.tol2bus.reqLayer0.utilization              0.7                       # Layer utilization (%)
system.tol2bus.respLayer0.occupancy           8575479                       # Layer occupancy (ticks)
system.tol2bus.respLayer0.utilization             0.0                       # Layer utilization (%)
system.tol2bus.respLayer1.occupancy         356624480                       # Layer occupancy (ticks)
system.tol2bus.respLayer1.utilization             0.5                       # Layer utilization (%)
system.voltage_domain.voltage                       1                       # Voltage in Volts

---------- End Simulation Statistics   ----------
