
---------- Begin Simulation Statistics ----------
final_tick                               174919207000                       # Number of ticks from beginning of simulation (restored from checkpoints and never reset)
host_inst_rate                                 394731                       # Simulator instruction rate (inst/s)
host_mem_usage                                 661864                       # Number of bytes of host memory used
host_op_rate                                   394745                       # Simulator op (including micro ops) rate (op/s)
host_seconds                                   253.34                       # Real time elapsed on the host
host_tick_rate                              690459879                       # Simulator tick rate (ticks/s)
sim_freq                                 1000000000000                       # Frequency of simulated ticks
sim_insts                                   100000000                       # Number of instructions simulated
sim_ops                                     100003630                       # Number of ops (including micro ops) simulated
sim_seconds                                  0.174919                       # Number of seconds simulated
sim_ticks                                174919207000                       # Number of ticks simulated
system.cpu.committedInsts                   100000000                       # Number of instructions committed
system.cpu.committedOps                     100003630                       # Number of ops (including micro ops) committed
system.cpu.cpi                               3.498384                       # CPI: cycles per instruction
system.cpu.discardedOps                         21213                       # Number of ops (including micro ops) which were discarded before commit
system.cpu.idleCycles                       232486996                       # Total number of cycles that the object has spent stopped
system.cpu.ipc                               0.285846                       # IPC: instructions per cycle
system.cpu.numCycles                        349838414                       # number of cpu cycles simulated
system.cpu.numFetchSuspends                         0                       # Number of times Execute suspended instruction fetching
system.cpu.numWorkItemsCompleted                    0                       # number of work items this cpu completed
system.cpu.numWorkItemsStarted                      0                       # number of work items this cpu started
system.cpu.op_class_0::No_OpClass                   0      0.00%      0.00% # Class of committed instruction
system.cpu.op_class_0::IntAlu                49995350     49.99%     49.99% # Class of committed instruction
system.cpu.op_class_0::IntMult                     88      0.00%     49.99% # Class of committed instruction
system.cpu.op_class_0::IntDiv                       0      0.00%     49.99% # Class of committed instruction
system.cpu.op_class_0::FloatAdd                     0      0.00%     49.99% # Class of committed instruction
system.cpu.op_class_0::FloatCmp                     0      0.00%     49.99% # Class of committed instruction
system.cpu.op_class_0::FloatCvt                     0      0.00%     49.99% # Class of committed instruction
system.cpu.op_class_0::FloatMult                    0      0.00%     49.99% # Class of committed instruction
system.cpu.op_class_0::FloatMultAcc                 0      0.00%     49.99% # Class of committed instruction
system.cpu.op_class_0::FloatDiv                     0      0.00%     49.99% # Class of committed instruction
system.cpu.op_class_0::FloatMisc                    0      0.00%     49.99% # Class of committed instruction
system.cpu.op_class_0::FloatSqrt                    0      0.00%     49.99% # Class of committed instruction
system.cpu.op_class_0::SimdAdd                      0      0.00%     49.99% # Class of committed instruction
system.cpu.op_class_0::SimdAddAcc                   0      0.00%     49.99% # Class of committed instruction
system.cpu.op_class_0::SimdAlu                      0      0.00%     49.99% # Class of committed instruction
system.cpu.op_class_0::SimdCmp                      0      0.00%     49.99% # Class of committed instruction
system.cpu.op_class_0::SimdCvt                      0      0.00%     49.99% # Class of committed instruction
system.cpu.op_class_0::SimdMisc                     0      0.00%     49.99% # Class of committed instruction
system.cpu.op_class_0::SimdMult                     0      0.00%     49.99% # Class of committed instruction
system.cpu.op_class_0::SimdMultAcc                  0      0.00%     49.99% # Class of committed instruction
system.cpu.op_class_0::SimdShift                    0      0.00%     49.99% # Class of committed instruction
system.cpu.op_class_0::SimdShiftAcc                 0      0.00%     49.99% # Class of committed instruction
system.cpu.op_class_0::SimdDiv                      0      0.00%     49.99% # Class of committed instruction
system.cpu.op_class_0::SimdSqrt                     0      0.00%     49.99% # Class of committed instruction
system.cpu.op_class_0::SimdFloatAdd                 0      0.00%     49.99% # Class of committed instruction
system.cpu.op_class_0::SimdFloatAlu                 0      0.00%     49.99% # Class of committed instruction
system.cpu.op_class_0::SimdFloatCmp                 2      0.00%     49.99% # Class of committed instruction
system.cpu.op_class_0::SimdFloatCvt                 0      0.00%     49.99% # Class of committed instruction
system.cpu.op_class_0::SimdFloatDiv                 0      0.00%     49.99% # Class of committed instruction
system.cpu.op_class_0::SimdFloatMisc               22      0.00%     49.99% # Class of committed instruction
system.cpu.op_class_0::SimdFloatMult                0      0.00%     49.99% # Class of committed instruction
system.cpu.op_class_0::SimdFloatMultAcc             0      0.00%     49.99% # Class of committed instruction
system.cpu.op_class_0::SimdFloatSqrt                0      0.00%     49.99% # Class of committed instruction
system.cpu.op_class_0::SimdReduceAdd                0      0.00%     49.99% # Class of committed instruction
system.cpu.op_class_0::SimdReduceAlu                0      0.00%     49.99% # Class of committed instruction
system.cpu.op_class_0::SimdReduceCmp                0      0.00%     49.99% # Class of committed instruction
system.cpu.op_class_0::SimdFloatReduceAdd            0      0.00%     49.99% # Class of committed instruction
system.cpu.op_class_0::SimdFloatReduceCmp            0      0.00%     49.99% # Class of committed instruction
system.cpu.op_class_0::SimdAes                      0      0.00%     49.99% # Class of committed instruction
system.cpu.op_class_0::SimdAesMix                   0      0.00%     49.99% # Class of committed instruction
system.cpu.op_class_0::SimdSha1Hash                 0      0.00%     49.99% # Class of committed instruction
system.cpu.op_class_0::SimdSha1Hash2                0      0.00%     49.99% # Class of committed instruction
system.cpu.op_class_0::SimdSha256Hash               0      0.00%     49.99% # Class of committed instruction
system.cpu.op_class_0::SimdSha256Hash2              0      0.00%     49.99% # Class of committed instruction
system.cpu.op_class_0::SimdShaSigma2                0      0.00%     49.99% # Class of committed instruction
system.cpu.op_class_0::SimdShaSigma3                0      0.00%     49.99% # Class of committed instruction
system.cpu.op_class_0::SimdPredAlu                  0      0.00%     49.99% # Class of committed instruction
system.cpu.op_class_0::MemRead               36892285     36.89%     86.88% # Class of committed instruction
system.cpu.op_class_0::MemWrite              13115883     13.12%    100.00% # Class of committed instruction
system.cpu.op_class_0::FloatMemRead                 0      0.00%    100.00% # Class of committed instruction
system.cpu.op_class_0::FloatMemWrite                0      0.00%    100.00% # Class of committed instruction
system.cpu.op_class_0::IprAccess                    0      0.00%    100.00% # Class of committed instruction
system.cpu.op_class_0::InstPrefetch                 0      0.00%    100.00% # Class of committed instruction
system.cpu.op_class_0::total                100003630                       # Class of committed instruction
system.cpu.tickCycles                       117351418                       # Number of cycles that the object actually ticked
system.cpu.workload.numSyscalls                    19                       # Number of system calls
system.membus.snoop_filter.hit_multi_requests            0                       # Number of requests hitting in the snoop filter with multiple (>1) holders of the requested data.
system.membus.snoop_filter.hit_multi_snoops            0                       # Number of snoops hitting in the snoop filter with multiple (>1) holders of the requested data.
system.membus.snoop_filter.hit_single_requests      1479565                       # Number of requests hitting in the snoop filter with a single holder of the requested data.
system.membus.snoop_filter.hit_single_snoops            0                       # Number of snoops hitting in the snoop filter with a single holder of the requested data.
system.membus.snoop_filter.tot_requests       2967678                       # Total number of requests made to the snoop filter.
system.membus.snoop_filter.tot_snoops               0                       # Total number of snoops made to the snoop filter.
system.tol2bus.snoop_filter.hit_multi_requests           29                       # Number of requests hitting in the snoop filter with multiple (>1) holders of the requested data.
system.tol2bus.snoop_filter.hit_multi_snoops            1                       # Number of snoops hitting in the snoop filter with multiple (>1) holders of the requested data.
system.tol2bus.snoop_filter.hit_single_requests      1486828                       # Number of requests hitting in the snoop filter with a single holder of the requested data.
system.tol2bus.snoop_filter.hit_single_snoops          355                       # Number of snoops hitting in the snoop filter with a single holder of the requested data.
system.tol2bus.snoop_filter.tot_requests      2975033                       # Total number of requests made to the snoop filter.
system.tol2bus.snoop_filter.tot_snoops            356                       # Total number of snoops made to the snoop filter.
system.clk_domain.clock                          1000                       # Clock period in ticks
system.cpu.branchPred.lookups                  606508                       # Number of BP lookups
system.cpu.branchPred.condPredicted            604443                       # Number of conditional branches predicted
system.cpu.branchPred.condIncorrect               824                       # Number of conditional branches incorrect
system.cpu.branchPred.BTBLookups               602508                       # Number of BTB lookups
system.cpu.branchPred.BTBHits                  601428                       # Number of BTB hits
system.cpu.branchPred.BTBHitPct             99.820749                       # BTB Hit Percentage
system.cpu.branchPred.RASUsed                     558                       # Number of times the RAS was used to get a target.
system.cpu.branchPred.RASIncorrect                  2                       # Number of incorrect RAS predictions.
system.cpu.branchPred.indirectLookups             367                       # Number of indirect predictor lookups.
system.cpu.branchPred.indirectHits                174                       # Number of indirect target hits.
system.cpu.branchPred.indirectMisses              193                       # Number of indirect misses.
system.cpu.branchPred.indirectMispredicted          102                       # Number of mispredicted indirect branches.
system.cpu.dcache.demand_hits::.cpu.data     45820112                       # number of demand (read+write) hits
system.cpu.dcache.demand_hits::total         45820112                       # number of demand (read+write) hits
system.cpu.dcache.overall_hits::.cpu.data     45820147                       # number of overall hits
system.cpu.dcache.overall_hits::total        45820147                       # number of overall hits
system.cpu.dcache.demand_misses::.cpu.data      2975105                       # number of demand (read+write) misses
system.cpu.dcache.demand_misses::total        2975105                       # number of demand (read+write) misses
system.cpu.dcache.overall_misses::.cpu.data      2975122                       # number of overall misses
system.cpu.dcache.overall_misses::total       2975122                       # number of overall misses
system.cpu.dcache.demand_miss_latency::.cpu.data 237557714500                       # number of demand (read+write) miss cycles
system.cpu.dcache.demand_miss_latency::total 237557714500                       # number of demand (read+write) miss cycles
system.cpu.dcache.overall_miss_latency::.cpu.data 237557714500                       # number of overall miss cycles
system.cpu.dcache.overall_miss_latency::total 237557714500                       # number of overall miss cycles
system.cpu.dcache.demand_accesses::.cpu.data     48795217                       # number of demand (read+write) accesses
system.cpu.dcache.demand_accesses::total     48795217                       # number of demand (read+write) accesses
system.cpu.dcache.overall_accesses::.cpu.data     48795269                       # number of overall (read+write) accesses
system.cpu.dcache.overall_accesses::total     48795269                       # number of overall (read+write) accesses
system.cpu.dcache.demand_miss_rate::.cpu.data     0.060971                       # miss rate for demand accesses
system.cpu.dcache.demand_miss_rate::total     0.060971                       # miss rate for demand accesses
system.cpu.dcache.overall_miss_rate::.cpu.data     0.060972                       # miss rate for overall accesses
system.cpu.dcache.overall_miss_rate::total     0.060972                       # miss rate for overall accesses
system.cpu.dcache.demand_avg_miss_latency::.cpu.data 79848.514422                       # average overall miss latency
system.cpu.dcache.demand_avg_miss_latency::total 79848.514422                       # average overall miss latency
system.cpu.dcache.overall_avg_miss_latency::.cpu.data 79848.058164                       # average overall miss latency
system.cpu.dcache.overall_avg_miss_latency::total 79848.058164                       # average overall miss latency
system.cpu.dcache.blocked_cycles::no_mshrs            0                       # number of cycles access was blocked
system.cpu.dcache.blocked_cycles::no_targets            0                       # number of cycles access was blocked
system.cpu.dcache.blocked::no_mshrs                 0                       # number of cycles access was blocked
system.cpu.dcache.blocked::no_targets               0                       # number of cycles access was blocked
system.cpu.dcache.avg_blocked_cycles::no_mshrs          nan                       # average number of cycles each access was blocked
system.cpu.dcache.avg_blocked_cycles::no_targets          nan                       # average number of cycles each access was blocked
system.cpu.dcache.writebacks::.writebacks      1486497                       # number of writebacks
system.cpu.dcache.writebacks::total           1486497                       # number of writebacks
system.cpu.dcache.demand_mshr_hits::.cpu.data      1487488                       # number of demand (read+write) MSHR hits
system.cpu.dcache.demand_mshr_hits::total      1487488                       # number of demand (read+write) MSHR hits
system.cpu.dcache.overall_mshr_hits::.cpu.data      1487488                       # number of overall MSHR hits
system.cpu.dcache.overall_mshr_hits::total      1487488                       # number of overall MSHR hits
system.cpu.dcache.demand_mshr_misses::.cpu.data      1487617                       # number of demand (read+write) MSHR misses
system.cpu.dcache.demand_mshr_misses::total      1487617                       # number of demand (read+write) MSHR misses
system.cpu.dcache.overall_mshr_misses::.cpu.data      1487631                       # number of overall MSHR misses
system.cpu.dcache.overall_mshr_misses::total      1487631                       # number of overall MSHR misses
system.cpu.dcache.demand_mshr_miss_latency::.cpu.data 121242949000                       # number of demand (read+write) MSHR miss cycles
system.cpu.dcache.demand_mshr_miss_latency::total 121242949000                       # number of demand (read+write) MSHR miss cycles
system.cpu.dcache.overall_mshr_miss_latency::.cpu.data 121244042000                       # number of overall MSHR miss cycles
system.cpu.dcache.overall_mshr_miss_latency::total 121244042000                       # number of overall MSHR miss cycles
system.cpu.dcache.demand_mshr_miss_rate::.cpu.data     0.030487                       # mshr miss rate for demand accesses
system.cpu.dcache.demand_mshr_miss_rate::total     0.030487                       # mshr miss rate for demand accesses
system.cpu.dcache.overall_mshr_miss_rate::.cpu.data     0.030487                       # mshr miss rate for overall accesses
system.cpu.dcache.overall_mshr_miss_rate::total     0.030487                       # mshr miss rate for overall accesses
system.cpu.dcache.demand_avg_mshr_miss_latency::.cpu.data 81501.454339                       # average overall mshr miss latency
system.cpu.dcache.demand_avg_mshr_miss_latency::total 81501.454339                       # average overall mshr miss latency
system.cpu.dcache.overall_avg_mshr_miss_latency::.cpu.data 81501.422060                       # average overall mshr miss latency
system.cpu.dcache.overall_avg_mshr_miss_latency::total 81501.422060                       # average overall mshr miss latency
system.cpu.dcache.replacements                1486607                       # number of replacements
system.cpu.dcache.ReadReq_hits::.cpu.data     35702562                       # number of ReadReq hits
system.cpu.dcache.ReadReq_hits::total        35702562                       # number of ReadReq hits
system.cpu.dcache.ReadReq_misses::.cpu.data          120                       # number of ReadReq misses
system.cpu.dcache.ReadReq_misses::total           120                       # number of ReadReq misses
system.cpu.dcache.ReadReq_miss_latency::.cpu.data      9503500                       # number of ReadReq miss cycles
system.cpu.dcache.ReadReq_miss_latency::total      9503500                       # number of ReadReq miss cycles
system.cpu.dcache.ReadReq_accesses::.cpu.data     35702682                       # number of ReadReq accesses(hits+misses)
system.cpu.dcache.ReadReq_accesses::total     35702682                       # number of ReadReq accesses(hits+misses)
system.cpu.dcache.ReadReq_miss_rate::.cpu.data     0.000003                       # miss rate for ReadReq accesses
system.cpu.dcache.ReadReq_miss_rate::total     0.000003                       # miss rate for ReadReq accesses
system.cpu.dcache.ReadReq_avg_miss_latency::.cpu.data 79195.833333                       # average ReadReq miss latency
system.cpu.dcache.ReadReq_avg_miss_latency::total 79195.833333                       # average ReadReq miss latency
system.cpu.dcache.ReadReq_mshr_hits::.cpu.data            6                       # number of ReadReq MSHR hits
system.cpu.dcache.ReadReq_mshr_hits::total            6                       # number of ReadReq MSHR hits
system.cpu.dcache.ReadReq_mshr_misses::.cpu.data          114                       # number of ReadReq MSHR misses
system.cpu.dcache.ReadReq_mshr_misses::total          114                       # number of ReadReq MSHR misses
system.cpu.dcache.ReadReq_mshr_miss_latency::.cpu.data      8972000                       # number of ReadReq MSHR miss cycles
system.cpu.dcache.ReadReq_mshr_miss_latency::total      8972000                       # number of ReadReq MSHR miss cycles
system.cpu.dcache.ReadReq_mshr_miss_rate::.cpu.data     0.000003                       # mshr miss rate for ReadReq accesses
system.cpu.dcache.ReadReq_mshr_miss_rate::total     0.000003                       # mshr miss rate for ReadReq accesses
system.cpu.dcache.ReadReq_avg_mshr_miss_latency::.cpu.data 78701.754386                       # average ReadReq mshr miss latency
system.cpu.dcache.ReadReq_avg_mshr_miss_latency::total 78701.754386                       # average ReadReq mshr miss latency
system.cpu.dcache.WriteReq_hits::.cpu.data     10117550                       # number of WriteReq hits
system.cpu.dcache.WriteReq_hits::total       10117550                       # number of WriteReq hits
system.cpu.dcache.WriteReq_misses::.cpu.data      2974985                       # number of WriteReq misses
system.cpu.dcache.WriteReq_misses::total      2974985                       # number of WriteReq misses
system.cpu.dcache.WriteReq_miss_latency::.cpu.data 237548211000                       # number of WriteReq miss cycles
system.cpu.dcache.WriteReq_miss_latency::total 237548211000                       # number of WriteReq miss cycles
system.cpu.dcache.WriteReq_accesses::.cpu.data     13092535                       # number of WriteReq accesses(hits+misses)
system.cpu.dcache.WriteReq_accesses::total     13092535                       # number of WriteReq accesses(hits+misses)
system.cpu.dcache.WriteReq_miss_rate::.cpu.data     0.227228                       # miss rate for WriteReq accesses
system.cpu.dcache.WriteReq_miss_rate::total     0.227228                       # miss rate for WriteReq accesses
system.cpu.dcache.WriteReq_avg_miss_latency::.cpu.data 79848.540749                       # average WriteReq miss latency
system.cpu.dcache.WriteReq_avg_miss_latency::total 79848.540749                       # average WriteReq miss latency
system.cpu.dcache.WriteReq_mshr_hits::.cpu.data      1487482                       # number of WriteReq MSHR hits
system.cpu.dcache.WriteReq_mshr_hits::total      1487482                       # number of WriteReq MSHR hits
system.cpu.dcache.WriteReq_mshr_misses::.cpu.data      1487503                       # number of WriteReq MSHR misses
system.cpu.dcache.WriteReq_mshr_misses::total      1487503                       # number of WriteReq MSHR misses
system.cpu.dcache.WriteReq_mshr_miss_latency::.cpu.data 121233977000                       # number of WriteReq MSHR miss cycles
system.cpu.dcache.WriteReq_mshr_miss_latency::total 121233977000                       # number of WriteReq MSHR miss cycles
system.cpu.dcache.WriteReq_mshr_miss_rate::.cpu.data     0.113615                       # mshr miss rate for WriteReq accesses
system.cpu.dcache.WriteReq_mshr_miss_rate::total     0.113615                       # mshr miss rate for WriteReq accesses
system.cpu.dcache.WriteReq_avg_mshr_miss_latency::.cpu.data 81501.668904                       # average WriteReq mshr miss latency
system.cpu.dcache.WriteReq_avg_mshr_miss_latency::total 81501.668904                       # average WriteReq mshr miss latency
system.cpu.dcache.SoftPFReq_hits::.cpu.data           35                       # number of SoftPFReq hits
system.cpu.dcache.SoftPFReq_hits::total            35                       # number of SoftPFReq hits
system.cpu.dcache.SoftPFReq_misses::.cpu.data           17                       # number of SoftPFReq misses
system.cpu.dcache.SoftPFReq_misses::total           17                       # number of SoftPFReq misses
system.cpu.dcache.SoftPFReq_accesses::.cpu.data           52                       # number of SoftPFReq accesses(hits+misses)
system.cpu.dcache.SoftPFReq_accesses::total           52                       # number of SoftPFReq accesses(hits+misses)
system.cpu.dcache.SoftPFReq_miss_rate::.cpu.data     0.326923                       # miss rate for SoftPFReq accesses
system.cpu.dcache.SoftPFReq_miss_rate::total     0.326923                       # miss rate for SoftPFReq accesses
system.cpu.dcache.SoftPFReq_mshr_misses::.cpu.data           14                       # number of SoftPFReq MSHR misses
system.cpu.dcache.SoftPFReq_mshr_misses::total           14                       # number of SoftPFReq MSHR misses
system.cpu.dcache.SoftPFReq_mshr_miss_latency::.cpu.data      1093000                       # number of SoftPFReq MSHR miss cycles
system.cpu.dcache.SoftPFReq_mshr_miss_latency::total      1093000                       # number of SoftPFReq MSHR miss cycles
system.cpu.dcache.SoftPFReq_mshr_miss_rate::.cpu.data     0.269231                       # mshr miss rate for SoftPFReq accesses
system.cpu.dcache.SoftPFReq_mshr_miss_rate::total     0.269231                       # mshr miss rate for SoftPFReq accesses
system.cpu.dcache.SoftPFReq_avg_mshr_miss_latency::.cpu.data 78071.428571                       # average SoftPFReq mshr miss latency
system.cpu.dcache.SoftPFReq_avg_mshr_miss_latency::total 78071.428571                       # average SoftPFReq mshr miss latency
system.cpu.dcache.LoadLockedReq_hits::.cpu.data           14                       # number of LoadLockedReq hits
system.cpu.dcache.LoadLockedReq_hits::total           14                       # number of LoadLockedReq hits
system.cpu.dcache.LoadLockedReq_accesses::.cpu.data           14                       # number of LoadLockedReq accesses(hits+misses)
system.cpu.dcache.LoadLockedReq_accesses::total           14                       # number of LoadLockedReq accesses(hits+misses)
system.cpu.dcache.StoreCondReq_hits::.cpu.data           14                       # number of StoreCondReq hits
system.cpu.dcache.StoreCondReq_hits::total           14                       # number of StoreCondReq hits
system.cpu.dcache.StoreCondReq_accesses::.cpu.data           14                       # number of StoreCondReq accesses(hits+misses)
system.cpu.dcache.StoreCondReq_accesses::total           14                       # number of StoreCondReq accesses(hits+misses)
system.cpu.dcache.power_state.pwrStateResidencyTicks::UNDEFINED 174919207000                       # Cumulative time (in ticks) in various power states
system.cpu.dcache.tags.tagsinuse          1023.443421                       # Cycle average of tags in use
system.cpu.dcache.tags.total_refs            47307806                       # Total number of references to valid blocks.
system.cpu.dcache.tags.sampled_refs           1487631                       # Sample count of references to valid blocks.
system.cpu.dcache.tags.avg_refs             31.800766                       # Average number of references to valid blocks.
system.cpu.dcache.tags.warmup_cycle            176500                       # Cycle when the warmup percentage was hit.
system.cpu.dcache.tags.occ_blocks::.cpu.data  1023.443421                       # Average occupied blocks per requestor
system.cpu.dcache.tags.occ_percent::.cpu.data     0.999456                       # Average percentage of cache occupancy
system.cpu.dcache.tags.occ_percent::total     0.999456                       # Average percentage of cache occupancy
system.cpu.dcache.tags.occ_task_id_blocks::1024         1024                       # Occupied blocks per task id
system.cpu.dcache.tags.age_task_id_blocks_1024::0           84                       # Occupied blocks per task id
system.cpu.dcache.tags.age_task_id_blocks_1024::1          764                       # Occupied blocks per task id
system.cpu.dcache.tags.age_task_id_blocks_1024::2          174                       # Occupied blocks per task id
system.cpu.dcache.tags.age_task_id_blocks_1024::4            2                       # Occupied blocks per task id
system.cpu.dcache.tags.occ_task_id_percent::1024            1                       # Percentage of cache occupancy per task id
system.cpu.dcache.tags.tag_accesses          99078225                       # Number of tag accesses
system.cpu.dcache.tags.data_accesses         99078225                       # Number of data accesses
system.cpu.dcache.tags.power_state.pwrStateResidencyTicks::UNDEFINED 174919207000                       # Cumulative time (in ticks) in various power states
system.cpu.dtb.instHits                             0                       # ITB inst hits
system.cpu.dtb.instMisses                           0                       # ITB inst misses
system.cpu.dtb.readHits                             0                       # DTB read hits
system.cpu.dtb.readMisses                           0                       # DTB read misses
system.cpu.dtb.writeHits                            0                       # DTB write hits
system.cpu.dtb.writeMisses                          0                       # DTB write misses
system.cpu.dtb.inserts                              0                       # Number of times an entry is inserted into the TLB
system.cpu.dtb.flushTlb                             0                       # Number of times complete TLB was flushed
system.cpu.dtb.flushTlbMva                          0                       # Number of times TLB was flushed by MVA
system.cpu.dtb.flushTlbMvaAsid                      0                       # Number of times TLB was flushed by MVA & ASID
system.cpu.dtb.flushTlbAsid                         0                       # Number of times TLB was flushed by ASID
system.cpu.dtb.flushedEntries                       0                       # Number of entries that have been flushed from TLB
system.cpu.dtb.alignFaults                          0                       # Number of TLB faults due to alignment restrictions
system.cpu.dtb.prefetchFaults                       0                       # Number of TLB faults due to prefetch
system.cpu.dtb.domainFaults                         0                       # Number of TLB faults due to domain restrictions
system.cpu.dtb.permsFaults                          0                       # Number of TLB faults due to permissions restrictions
system.cpu.dtb.readAccesses                         0                       # DTB read accesses
system.cpu.dtb.writeAccesses                        0                       # DTB write accesses
system.cpu.dtb.instAccesses                         0                       # ITB inst accesses
system.cpu.dtb.hits                                 0                       # Total TLB (inst and data) hits
system.cpu.dtb.misses                               0                       # Total TLB (inst and data) misses
system.cpu.dtb.accesses                             0                       # Total TLB (inst and data) accesses
system.cpu.dtb.stage2_mmu.stage2_tlb.instHits            0                       # ITB inst hits
system.cpu.dtb.stage2_mmu.stage2_tlb.instMisses            0                       # ITB inst misses
system.cpu.dtb.stage2_mmu.stage2_tlb.readHits            0                       # DTB read hits
system.cpu.dtb.stage2_mmu.stage2_tlb.readMisses            0                       # DTB read misses
system.cpu.dtb.stage2_mmu.stage2_tlb.writeHits            0                       # DTB write hits
system.cpu.dtb.stage2_mmu.stage2_tlb.writeMisses            0                       # DTB write misses
system.cpu.dtb.stage2_mmu.stage2_tlb.inserts            0                       # Number of times an entry is inserted into the TLB
system.cpu.dtb.stage2_mmu.stage2_tlb.flushTlb            0                       # Number of times complete TLB was flushed
system.cpu.dtb.stage2_mmu.stage2_tlb.flushTlbMva            0                       # Number of times TLB was flushed by MVA
system.cpu.dtb.stage2_mmu.stage2_tlb.flushTlbMvaAsid            0                       # Number of times TLB was flushed by MVA & ASID
system.cpu.dtb.stage2_mmu.stage2_tlb.flushTlbAsid            0                       # Number of times TLB was flushed by ASID
system.cpu.dtb.stage2_mmu.stage2_tlb.flushedEntries            0                       # Number of entries that have been flushed from TLB
system.cpu.dtb.stage2_mmu.stage2_tlb.alignFaults            0                       # Number of TLB faults due to alignment restrictions
system.cpu.dtb.stage2_mmu.stage2_tlb.prefetchFaults            0                       # Number of TLB faults due to prefetch
system.cpu.dtb.stage2_mmu.stage2_tlb.domainFaults            0                       # Number of TLB faults due to domain restrictions
system.cpu.dtb.stage2_mmu.stage2_tlb.permsFaults            0                       # Number of TLB faults due to permissions restrictions
system.cpu.dtb.stage2_mmu.stage2_tlb.readAccesses            0                       # DTB read accesses
system.cpu.dtb.stage2_mmu.stage2_tlb.writeAccesses            0                       # DTB write accesses
system.cpu.dtb.stage2_mmu.stage2_tlb.instAccesses            0                       # ITB inst accesses
system.cpu.dtb.stage2_mmu.stage2_tlb.hits            0                       # Total TLB (inst and data) hits
system.cpu.dtb.stage2_mmu.stage2_tlb.misses            0                       # Total TLB (inst and data) misses
system.cpu.dtb.stage2_mmu.stage2_tlb.accesses            0                       # Total TLB (inst and data) accesses
system.cpu.dtb.stage2_mmu.stage2_tlb.walker.walks            0                       # Table walker walks requested
system.cpu.dtb.stage2_mmu.stage2_tlb.walker.requestOrigin_Requested::Data            0                       # Table walker requests started/completed, data/inst
system.cpu.dtb.stage2_mmu.stage2_tlb.walker.requestOrigin_Requested::Inst            0                       # Table walker requests started/completed, data/inst
system.cpu.dtb.stage2_mmu.stage2_tlb.walker.requestOrigin_Requested::total            0                       # Table walker requests started/completed, data/inst
system.cpu.dtb.stage2_mmu.stage2_tlb.walker.requestOrigin_Completed::Data            0                       # Table walker requests started/completed, data/inst
system.cpu.dtb.stage2_mmu.stage2_tlb.walker.requestOrigin_Completed::Inst            0                       # Table walker requests started/completed, data/inst
system.cpu.dtb.stage2_mmu.stage2_tlb.walker.requestOrigin_Completed::total            0                       # Table walker requests started/completed, data/inst
system.cpu.dtb.stage2_mmu.stage2_tlb.walker.requestOrigin::total            0                       # Table walker requests started/completed, data/inst
system.cpu.dtb.stage2_mmu.stage2_tlb.walker.power_state.pwrStateResidencyTicks::UNDEFINED 174919207000                       # Cumulative time (in ticks) in various power states
system.cpu.dtb.walker.walks                         0                       # Table walker walks requested
system.cpu.dtb.walker.requestOrigin_Requested::Data            0                       # Table walker requests started/completed, data/inst
system.cpu.dtb.walker.requestOrigin_Requested::Inst            0                       # Table walker requests started/completed, data/inst
system.cpu.dtb.walker.requestOrigin_Requested::total            0                       # Table walker requests started/completed, data/inst
system.cpu.dtb.walker.requestOrigin_Completed::Data            0                       # Table walker requests started/completed, data/inst
system.cpu.dtb.walker.requestOrigin_Completed::Inst            0                       # Table walker requests started/completed, data/inst
system.cpu.dtb.walker.requestOrigin_Completed::total            0                       # Table walker requests started/completed, data/inst
system.cpu.dtb.walker.requestOrigin::total            0                       # Table walker requests started/completed, data/inst
system.cpu.dtb.walker.power_state.pwrStateResidencyTicks::UNDEFINED 174919207000                       # Cumulative time (in ticks) in various power states
system.cpu.fetch2.intInstructions            49669851                       # Number of integer instructions successfully decoded
system.cpu.fetch2.fpInstructions                    0                       # Number of floating point instructions successfully decoded
system.cpu.fetch2.vecInstructions                   0                       # Number of SIMD instructions successfully decoded
system.cpu.fetch2.loadInstructions           37092382                       # Number of memory load instructions successfully decoded
system.cpu.fetch2.storeInstructions          13161145                       # Number of memory store instructions successfully decoded
system.cpu.fetch2.amoInstructions                   0                       # Number of memory atomic instructions successfully decoded
system.cpu.icache.demand_hits::.cpu.inst      6045923                       # number of demand (read+write) hits
system.cpu.icache.demand_hits::total          6045923                       # number of demand (read+write) hits
system.cpu.icache.overall_hits::.cpu.inst      6045923                       # number of overall hits
system.cpu.icache.overall_hits::total         6045923                       # number of overall hits
system.cpu.icache.demand_misses::.cpu.inst          575                       # number of demand (read+write) misses
system.cpu.icache.demand_misses::total            575                       # number of demand (read+write) misses
system.cpu.icache.overall_misses::.cpu.inst          575                       # number of overall misses
system.cpu.icache.overall_misses::total           575                       # number of overall misses
system.cpu.icache.demand_miss_latency::.cpu.inst     39390000                       # number of demand (read+write) miss cycles
system.cpu.icache.demand_miss_latency::total     39390000                       # number of demand (read+write) miss cycles
system.cpu.icache.overall_miss_latency::.cpu.inst     39390000                       # number of overall miss cycles
system.cpu.icache.overall_miss_latency::total     39390000                       # number of overall miss cycles
system.cpu.icache.demand_accesses::.cpu.inst      6046498                       # number of demand (read+write) accesses
system.cpu.icache.demand_accesses::total      6046498                       # number of demand (read+write) accesses
system.cpu.icache.overall_accesses::.cpu.inst      6046498                       # number of overall (read+write) accesses
system.cpu.icache.overall_accesses::total      6046498                       # number of overall (read+write) accesses
system.cpu.icache.demand_miss_rate::.cpu.inst     0.000095                       # miss rate for demand accesses
system.cpu.icache.demand_miss_rate::total     0.000095                       # miss rate for demand accesses
system.cpu.icache.overall_miss_rate::.cpu.inst     0.000095                       # miss rate for overall accesses
system.cpu.icache.overall_miss_rate::total     0.000095                       # miss rate for overall accesses
system.cpu.icache.demand_avg_miss_latency::.cpu.inst 68504.347826                       # average overall miss latency
system.cpu.icache.demand_avg_miss_latency::total 68504.347826                       # average overall miss latency
system.cpu.icache.overall_avg_miss_latency::.cpu.inst 68504.347826                       # average overall miss latency
system.cpu.icache.overall_avg_miss_latency::total 68504.347826                       # average overall miss latency
system.cpu.icache.blocked_cycles::no_mshrs            0                       # number of cycles access was blocked
system.cpu.icache.blocked_cycles::no_targets            0                       # number of cycles access was blocked
system.cpu.icache.blocked::no_mshrs                 0                       # number of cycles access was blocked
system.cpu.icache.blocked::no_targets               0                       # number of cycles access was blocked
system.cpu.icache.avg_blocked_cycles::no_mshrs          nan                       # average number of cycles each access was blocked
system.cpu.icache.avg_blocked_cycles::no_targets          nan                       # average number of cycles each access was blocked
system.cpu.icache.writebacks::.writebacks          220                       # number of writebacks
system.cpu.icache.writebacks::total               220                       # number of writebacks
system.cpu.icache.demand_mshr_misses::.cpu.inst          575                       # number of demand (read+write) MSHR misses
system.cpu.icache.demand_mshr_misses::total          575                       # number of demand (read+write) MSHR misses
system.cpu.icache.overall_mshr_misses::.cpu.inst          575                       # number of overall MSHR misses
system.cpu.icache.overall_mshr_misses::total          575                       # number of overall MSHR misses
system.cpu.icache.demand_mshr_miss_latency::.cpu.inst     38815000                       # number of demand (read+write) MSHR miss cycles
system.cpu.icache.demand_mshr_miss_latency::total     38815000                       # number of demand (read+write) MSHR miss cycles
system.cpu.icache.overall_mshr_miss_latency::.cpu.inst     38815000                       # number of overall MSHR miss cycles
system.cpu.icache.overall_mshr_miss_latency::total     38815000                       # number of overall MSHR miss cycles
system.cpu.icache.demand_mshr_miss_rate::.cpu.inst     0.000095                       # mshr miss rate for demand accesses
system.cpu.icache.demand_mshr_miss_rate::total     0.000095                       # mshr miss rate for demand accesses
system.cpu.icache.overall_mshr_miss_rate::.cpu.inst     0.000095                       # mshr miss rate for overall accesses
system.cpu.icache.overall_mshr_miss_rate::total     0.000095                       # mshr miss rate for overall accesses
system.cpu.icache.demand_avg_mshr_miss_latency::.cpu.inst 67504.347826                       # average overall mshr miss latency
system.cpu.icache.demand_avg_mshr_miss_latency::total 67504.347826                       # average overall mshr miss latency
system.cpu.icache.overall_avg_mshr_miss_latency::.cpu.inst 67504.347826                       # average overall mshr miss latency
system.cpu.icache.overall_avg_mshr_miss_latency::total 67504.347826                       # average overall mshr miss latency
system.cpu.icache.replacements                    220                       # number of replacements
system.cpu.icache.ReadReq_hits::.cpu.inst      6045923                       # number of ReadReq hits
system.cpu.icache.ReadReq_hits::total         6045923                       # number of ReadReq hits
system.cpu.icache.ReadReq_misses::.cpu.inst          575                       # number of ReadReq misses
system.cpu.icache.ReadReq_misses::total           575                       # number of ReadReq misses
system.cpu.icache.ReadReq_miss_latency::.cpu.inst     39390000                       # number of ReadReq miss cycles
system.cpu.icache.ReadReq_miss_latency::total     39390000                       # number of ReadReq miss cycles
system.cpu.icache.ReadReq_accesses::.cpu.inst      6046498                       # number of ReadReq accesses(hits+misses)
system.cpu.icache.ReadReq_accesses::total      6046498                       # number of ReadReq accesses(hits+misses)
system.cpu.icache.ReadReq_miss_rate::.cpu.inst     0.000095                       # miss rate for ReadReq accesses
system.cpu.icache.ReadReq_miss_rate::total     0.000095                       # miss rate for ReadReq accesses
system.cpu.icache.ReadReq_avg_miss_latency::.cpu.inst 68504.347826                       # average ReadReq miss latency
system.cpu.icache.ReadReq_avg_miss_latency::total 68504.347826                       # average ReadReq miss latency
system.cpu.icache.ReadReq_mshr_misses::.cpu.inst          575                       # number of ReadReq MSHR misses
system.cpu.icache.ReadReq_mshr_misses::total          575                       # number of ReadReq MSHR misses
system.cpu.icache.ReadReq_mshr_miss_latency::.cpu.inst     38815000                       # number of ReadReq MSHR miss cycles
system.cpu.icache.ReadReq_mshr_miss_latency::total     38815000                       # number of ReadReq MSHR miss cycles
system.cpu.icache.ReadReq_mshr_miss_rate::.cpu.inst     0.000095                       # mshr miss rate for ReadReq accesses
system.cpu.icache.ReadReq_mshr_miss_rate::total     0.000095                       # mshr miss rate for ReadReq accesses
system.cpu.icache.ReadReq_avg_mshr_miss_latency::.cpu.inst 67504.347826                       # average ReadReq mshr miss latency
system.cpu.icache.ReadReq_avg_mshr_miss_latency::total 67504.347826                       # average ReadReq mshr miss latency
system.cpu.icache.power_state.pwrStateResidencyTicks::UNDEFINED 174919207000                       # Cumulative time (in ticks) in various power states
system.cpu.icache.tags.tagsinuse           354.951670                       # Cycle average of tags in use
system.cpu.icache.tags.total_refs             6046498                       # Total number of references to valid blocks.
system.cpu.icache.tags.sampled_refs               575                       # Sample count of references to valid blocks.
system.cpu.icache.tags.avg_refs          10515.648696                       # Average number of references to valid blocks.
system.cpu.icache.tags.warmup_cycle             87500                       # Cycle when the warmup percentage was hit.
system.cpu.icache.tags.occ_blocks::.cpu.inst   354.951670                       # Average occupied blocks per requestor
system.cpu.icache.tags.occ_percent::.cpu.inst     0.693265                       # Average percentage of cache occupancy
system.cpu.icache.tags.occ_percent::total     0.693265                       # Average percentage of cache occupancy
system.cpu.icache.tags.occ_task_id_blocks::1024          355                       # Occupied blocks per task id
system.cpu.icache.tags.age_task_id_blocks_1024::4          355                       # Occupied blocks per task id
system.cpu.icache.tags.occ_task_id_percent::1024     0.693359                       # Percentage of cache occupancy per task id
system.cpu.icache.tags.tag_accesses          12093571                       # Number of tag accesses
system.cpu.icache.tags.data_accesses         12093571                       # Number of data accesses
system.cpu.icache.tags.power_state.pwrStateResidencyTicks::UNDEFINED 174919207000                       # Cumulative time (in ticks) in various power states
system.cpu.itb.instHits                             0                       # ITB inst hits
system.cpu.itb.instMisses                           0                       # ITB inst misses
system.cpu.itb.readHits                             0                       # DTB read hits
system.cpu.itb.readMisses                           0                       # DTB read misses
system.cpu.itb.writeHits                            0                       # DTB write hits
system.cpu.itb.writeMisses                          0                       # DTB write misses
system.cpu.itb.inserts                              0                       # Number of times an entry is inserted into the TLB
system.cpu.itb.flushTlb                             0                       # Number of times complete TLB was flushed
system.cpu.itb.flushTlbMva                          0                       # Number of times TLB was flushed by MVA
system.cpu.itb.flushTlbMvaAsid                      0                       # Number of times TLB was flushed by MVA & ASID
system.cpu.itb.flushTlbAsid                         0                       # Number of times TLB was flushed by ASID
system.cpu.itb.flushedEntries                       0                       # Number of entries that have been flushed from TLB
system.cpu.itb.alignFaults                          0                       # Number of TLB faults due to alignment restrictions
system.cpu.itb.prefetchFaults                       0                       # Number of TLB faults due to prefetch
system.cpu.itb.domainFaults                         0                       # Number of TLB faults due to domain restrictions
system.cpu.itb.permsFaults                          0                       # Number of TLB faults due to permissions restrictions
system.cpu.itb.readAccesses                         0                       # DTB read accesses
system.cpu.itb.writeAccesses                        0                       # DTB write accesses
system.cpu.itb.instAccesses                         0                       # ITB inst accesses
system.cpu.itb.hits                                 0                       # Total TLB (inst and data) hits
system.cpu.itb.misses                               0                       # Total TLB (inst and data) misses
system.cpu.itb.accesses                             0                       # Total TLB (inst and data) accesses
system.cpu.itb.stage2_mmu.stage2_tlb.instHits            0                       # ITB inst hits
system.cpu.itb.stage2_mmu.stage2_tlb.instMisses            0                       # ITB inst misses
system.cpu.itb.stage2_mmu.stage2_tlb.readHits            0                       # DTB read hits
system.cpu.itb.stage2_mmu.stage2_tlb.readMisses            0                       # DTB read misses
system.cpu.itb.stage2_mmu.stage2_tlb.writeHits            0                       # DTB write hits
system.cpu.itb.stage2_mmu.stage2_tlb.writeMisses            0                       # DTB write misses
system.cpu.itb.stage2_mmu.stage2_tlb.inserts            0                       # Number of times an entry is inserted into the TLB
system.cpu.itb.stage2_mmu.stage2_tlb.flushTlb            0                       # Number of times complete TLB was flushed
system.cpu.itb.stage2_mmu.stage2_tlb.flushTlbMva            0                       # Number of times TLB was flushed by MVA
system.cpu.itb.stage2_mmu.stage2_tlb.flushTlbMvaAsid            0                       # Number of times TLB was flushed by MVA & ASID
system.cpu.itb.stage2_mmu.stage2_tlb.flushTlbAsid            0                       # Number of times TLB was flushed by ASID
system.cpu.itb.stage2_mmu.stage2_tlb.flushedEntries            0                       # Number of entries that have been flushed from TLB
system.cpu.itb.stage2_mmu.stage2_tlb.alignFaults            0                       # Number of TLB faults due to alignment restrictions
system.cpu.itb.stage2_mmu.stage2_tlb.prefetchFaults            0                       # Number of TLB faults due to prefetch
system.cpu.itb.stage2_mmu.stage2_tlb.domainFaults            0                       # Number of TLB faults due to domain restrictions
system.cpu.itb.stage2_mmu.stage2_tlb.permsFaults            0                       # Number of TLB faults due to permissions restrictions
system.cpu.itb.stage2_mmu.stage2_tlb.readAccesses            0                       # DTB read accesses
system.cpu.itb.stage2_mmu.stage2_tlb.writeAccesses            0                       # DTB write accesses
system.cpu.itb.stage2_mmu.stage2_tlb.instAccesses            0                       # ITB inst accesses
system.cpu.itb.stage2_mmu.stage2_tlb.hits            0                       # Total TLB (inst and data) hits
system.cpu.itb.stage2_mmu.stage2_tlb.misses            0                       # Total TLB (inst and data) misses
system.cpu.itb.stage2_mmu.stage2_tlb.accesses            0                       # Total TLB (inst and data) accesses
system.cpu.itb.stage2_mmu.stage2_tlb.walker.walks            0                       # Table walker walks requested
system.cpu.itb.stage2_mmu.stage2_tlb.walker.requestOrigin_Requested::Data            0                       # Table walker requests started/completed, data/inst
system.cpu.itb.stage2_mmu.stage2_tlb.walker.requestOrigin_Requested::Inst            0                       # Table walker requests started/completed, data/inst
system.cpu.itb.stage2_mmu.stage2_tlb.walker.requestOrigin_Requested::total            0                       # Table walker requests started/completed, data/inst
system.cpu.itb.stage2_mmu.stage2_tlb.walker.requestOrigin_Completed::Data            0                       # Table walker requests started/completed, data/inst
system.cpu.itb.stage2_mmu.stage2_tlb.walker.requestOrigin_Completed::Inst            0                       # Table walker requests started/completed, data/inst
system.cpu.itb.stage2_mmu.stage2_tlb.walker.requestOrigin_Completed::total            0                       # Table walker requests started/completed, data/inst
system.cpu.itb.stage2_mmu.stage2_tlb.walker.requestOrigin::total            0                       # Table walker requests started/completed, data/inst
system.cpu.itb.stage2_mmu.stage2_tlb.walker.power_state.pwrStateResidencyTicks::UNDEFINED 174919207000                       # Cumulative time (in ticks) in various power states
system.cpu.itb.walker.walks                         0                       # Table walker walks requested
system.cpu.itb.walker.requestOrigin_Requested::Data            0                       # Table walker requests started/completed, data/inst
system.cpu.itb.walker.requestOrigin_Requested::Inst            0                       # Table walker requests started/completed, data/inst
system.cpu.itb.walker.requestOrigin_Requested::total            0                       # Table walker requests started/completed, data/inst
system.cpu.itb.walker.requestOrigin_Completed::Data            0                       # Table walker requests started/completed, data/inst
system.cpu.itb.walker.requestOrigin_Completed::Inst            0                       # Table walker requests started/completed, data/inst
system.cpu.itb.walker.requestOrigin_Completed::total            0                       # Table walker requests started/completed, data/inst
system.cpu.itb.walker.requestOrigin::total            0                       # Table walker requests started/completed, data/inst
system.cpu.itb.walker.power_state.pwrStateResidencyTicks::UNDEFINED 174919207000                       # Cumulative time (in ticks) in various power states
system.cpu.power_state.pwrStateResidencyTicks::ON 174919207000                       # Cumulative time (in ticks) in various power states
system.cpu.thread0.numInsts                 100000000                       # Number of Instructions committed
system.cpu.thread0.numOps                   100003630                       # Number of Ops committed
system.cpu.thread0.numMemRefs                       0                       # Number of Memory References
system.cpu_clk_domain.clock                       500                       # Clock period in ticks
system.cpu_voltage_domain.voltage                   1                       # Voltage in Volts
system.l2.demand_hits::.cpu.inst                   76                       # number of demand (read+write) hits
system.l2.demand_hits::.cpu.data                   13                       # number of demand (read+write) hits
system.l2.demand_hits::total                       89                       # number of demand (read+write) hits
system.l2.overall_hits::.cpu.inst                  76                       # number of overall hits
system.l2.overall_hits::.cpu.data                  13                       # number of overall hits
system.l2.overall_hits::total                      89                       # number of overall hits
system.l2.demand_misses::.cpu.inst                499                       # number of demand (read+write) misses
system.l2.demand_misses::.cpu.data            1487618                       # number of demand (read+write) misses
system.l2.demand_misses::total                1488117                       # number of demand (read+write) misses
system.l2.overall_misses::.cpu.inst               499                       # number of overall misses
system.l2.overall_misses::.cpu.data           1487618                       # number of overall misses
system.l2.overall_misses::total               1488117                       # number of overall misses
system.l2.demand_miss_latency::.cpu.inst     37140000                       # number of demand (read+write) miss cycles
system.l2.demand_miss_latency::.cpu.data 119012443000                       # number of demand (read+write) miss cycles
system.l2.demand_miss_latency::total     119049583000                       # number of demand (read+write) miss cycles
system.l2.overall_miss_latency::.cpu.inst     37140000                       # number of overall miss cycles
system.l2.overall_miss_latency::.cpu.data 119012443000                       # number of overall miss cycles
system.l2.overall_miss_latency::total    119049583000                       # number of overall miss cycles
system.l2.demand_accesses::.cpu.inst              575                       # number of demand (read+write) accesses
system.l2.demand_accesses::.cpu.data          1487631                       # number of demand (read+write) accesses
system.l2.demand_accesses::total              1488206                       # number of demand (read+write) accesses
system.l2.overall_accesses::.cpu.inst             575                       # number of overall (read+write) accesses
system.l2.overall_accesses::.cpu.data         1487631                       # number of overall (read+write) accesses
system.l2.overall_accesses::total             1488206                       # number of overall (read+write) accesses
system.l2.demand_miss_rate::.cpu.inst        0.867826                       # miss rate for demand accesses
system.l2.demand_miss_rate::.cpu.data        0.999991                       # miss rate for demand accesses
system.l2.demand_miss_rate::total            0.999940                       # miss rate for demand accesses
system.l2.overall_miss_rate::.cpu.inst       0.867826                       # miss rate for overall accesses
system.l2.overall_miss_rate::.cpu.data       0.999991                       # miss rate for overall accesses
system.l2.overall_miss_rate::total           0.999940                       # miss rate for overall accesses
system.l2.demand_avg_miss_latency::.cpu.inst 74428.857715                       # average overall miss latency
system.l2.demand_avg_miss_latency::.cpu.data 80002.018663                       # average overall miss latency
system.l2.demand_avg_miss_latency::total 80000.149854                       # average overall miss latency
system.l2.overall_avg_miss_latency::.cpu.inst 74428.857715                       # average overall miss latency
system.l2.overall_avg_miss_latency::.cpu.data 80002.018663                       # average overall miss latency
system.l2.overall_avg_miss_latency::total 80000.149854                       # average overall miss latency
system.l2.blocked_cycles::no_mshrs                  0                       # number of cycles access was blocked
system.l2.blocked_cycles::no_targets                0                       # number of cycles access was blocked
system.l2.blocked::no_mshrs                         0                       # number of cycles access was blocked
system.l2.blocked::no_targets                       0                       # number of cycles access was blocked
system.l2.avg_blocked_cycles::no_mshrs            nan                       # average number of cycles each access was blocked
system.l2.avg_blocked_cycles::no_targets          nan                       # average number of cycles each access was blocked
system.l2.writebacks::.writebacks             1479327                       # number of writebacks
system.l2.writebacks::total                   1479327                       # number of writebacks
system.l2.demand_mshr_hits::.cpu.inst               1                       # number of demand (read+write) MSHR hits
system.l2.demand_mshr_hits::.cpu.data               3                       # number of demand (read+write) MSHR hits
system.l2.demand_mshr_hits::total                   4                       # number of demand (read+write) MSHR hits
system.l2.overall_mshr_hits::.cpu.inst              1                       # number of overall MSHR hits
system.l2.overall_mshr_hits::.cpu.data              3                       # number of overall MSHR hits
system.l2.overall_mshr_hits::total                  4                       # number of overall MSHR hits
system.l2.demand_mshr_misses::.cpu.inst           498                       # number of demand (read+write) MSHR misses
system.l2.demand_mshr_misses::.cpu.data       1487615                       # number of demand (read+write) MSHR misses
system.l2.demand_mshr_misses::total           1488113                       # number of demand (read+write) MSHR misses
system.l2.overall_mshr_misses::.cpu.inst          498                       # number of overall MSHR misses
system.l2.overall_mshr_misses::.cpu.data      1487615                       # number of overall MSHR misses
system.l2.overall_mshr_misses::total          1488113                       # number of overall MSHR misses
system.l2.demand_mshr_miss_latency::.cpu.inst     32091500                       # number of demand (read+write) MSHR miss cycles
system.l2.demand_mshr_miss_latency::.cpu.data 104136091500                       # number of demand (read+write) MSHR miss cycles
system.l2.demand_mshr_miss_latency::total 104168183000                       # number of demand (read+write) MSHR miss cycles
system.l2.overall_mshr_miss_latency::.cpu.inst     32091500                       # number of overall MSHR miss cycles
system.l2.overall_mshr_miss_latency::.cpu.data 104136091500                       # number of overall MSHR miss cycles
system.l2.overall_mshr_miss_latency::total 104168183000                       # number of overall MSHR miss cycles
system.l2.demand_mshr_miss_rate::.cpu.inst     0.866087                       # mshr miss rate for demand accesses
system.l2.demand_mshr_miss_rate::.cpu.data     0.999989                       # mshr miss rate for demand accesses
system.l2.demand_mshr_miss_rate::total       0.999938                       # mshr miss rate for demand accesses
system.l2.overall_mshr_miss_rate::.cpu.inst     0.866087                       # mshr miss rate for overall accesses
system.l2.overall_mshr_miss_rate::.cpu.data     0.999989                       # mshr miss rate for overall accesses
system.l2.overall_mshr_miss_rate::total      0.999938                       # mshr miss rate for overall accesses
system.l2.demand_avg_mshr_miss_latency::.cpu.inst 64440.763052                       # average overall mshr miss latency
system.l2.demand_avg_mshr_miss_latency::.cpu.data 70002.044548                       # average overall mshr miss latency
system.l2.demand_avg_mshr_miss_latency::total 70000.183454                       # average overall mshr miss latency
system.l2.overall_avg_mshr_miss_latency::.cpu.inst 64440.763052                       # average overall mshr miss latency
system.l2.overall_avg_mshr_miss_latency::.cpu.data 70002.044548                       # average overall mshr miss latency
system.l2.overall_avg_mshr_miss_latency::total 70000.183454                       # average overall mshr miss latency
system.l2.replacements                        1479921                       # number of replacements
system.l2.WritebackDirty_hits::.writebacks      1486497                       # number of WritebackDirty hits
system.l2.WritebackDirty_hits::total          1486497                       # number of WritebackDirty hits
system.l2.WritebackDirty_accesses::.writebacks      1486497                       # number of WritebackDirty accesses(hits+misses)
system.l2.WritebackDirty_accesses::total      1486497                       # number of WritebackDirty accesses(hits+misses)
system.l2.WritebackClean_hits::.writebacks          207                       # number of WritebackClean hits
system.l2.WritebackClean_hits::total              207                       # number of WritebackClean hits
system.l2.WritebackClean_accesses::.writebacks          207                       # number of WritebackClean accesses(hits+misses)
system.l2.WritebackClean_accesses::total          207                       # number of WritebackClean accesses(hits+misses)
system.l2.ReadExReq_misses::.cpu.data         1487503                       # number of ReadExReq misses
system.l2.ReadExReq_misses::total             1487503                       # number of ReadExReq misses
system.l2.ReadExReq_miss_latency::.cpu.data 119002722000                       # number of ReadExReq miss cycles
system.l2.ReadExReq_miss_latency::total  119002722000                       # number of ReadExReq miss cycles
system.l2.ReadExReq_accesses::.cpu.data       1487503                       # number of ReadExReq accesses(hits+misses)
system.l2.ReadExReq_accesses::total           1487503                       # number of ReadExReq accesses(hits+misses)
system.l2.ReadExReq_miss_rate::.cpu.data            1                       # miss rate for ReadExReq accesses
system.l2.ReadExReq_miss_rate::total                1                       # miss rate for ReadExReq accesses
system.l2.ReadExReq_avg_miss_latency::.cpu.data 80001.668568                       # average ReadExReq miss latency
system.l2.ReadExReq_avg_miss_latency::total 80001.668568                       # average ReadExReq miss latency
system.l2.ReadExReq_mshr_misses::.cpu.data      1487503                       # number of ReadExReq MSHR misses
system.l2.ReadExReq_mshr_misses::total        1487503                       # number of ReadExReq MSHR misses
system.l2.ReadExReq_mshr_miss_latency::.cpu.data 104127692000                       # number of ReadExReq MSHR miss cycles
system.l2.ReadExReq_mshr_miss_latency::total 104127692000                       # number of ReadExReq MSHR miss cycles
system.l2.ReadExReq_mshr_miss_rate::.cpu.data            1                       # mshr miss rate for ReadExReq accesses
system.l2.ReadExReq_mshr_miss_rate::total            1                       # mshr miss rate for ReadExReq accesses
system.l2.ReadExReq_avg_mshr_miss_latency::.cpu.data 70001.668568                       # average ReadExReq mshr miss latency
system.l2.ReadExReq_avg_mshr_miss_latency::total 70001.668568                       # average ReadExReq mshr miss latency
system.l2.ReadCleanReq_hits::.cpu.inst             76                       # number of ReadCleanReq hits
system.l2.ReadCleanReq_hits::total                 76                       # number of ReadCleanReq hits
system.l2.ReadCleanReq_misses::.cpu.inst          499                       # number of ReadCleanReq misses
system.l2.ReadCleanReq_misses::total              499                       # number of ReadCleanReq misses
system.l2.ReadCleanReq_miss_latency::.cpu.inst     37140000                       # number of ReadCleanReq miss cycles
system.l2.ReadCleanReq_miss_latency::total     37140000                       # number of ReadCleanReq miss cycles
system.l2.ReadCleanReq_accesses::.cpu.inst          575                       # number of ReadCleanReq accesses(hits+misses)
system.l2.ReadCleanReq_accesses::total            575                       # number of ReadCleanReq accesses(hits+misses)
system.l2.ReadCleanReq_miss_rate::.cpu.inst     0.867826                       # miss rate for ReadCleanReq accesses
system.l2.ReadCleanReq_miss_rate::total      0.867826                       # miss rate for ReadCleanReq accesses
system.l2.ReadCleanReq_avg_miss_latency::.cpu.inst 74428.857715                       # average ReadCleanReq miss latency
system.l2.ReadCleanReq_avg_miss_latency::total 74428.857715                       # average ReadCleanReq miss latency
system.l2.ReadCleanReq_mshr_hits::.cpu.inst            1                       # number of ReadCleanReq MSHR hits
system.l2.ReadCleanReq_mshr_hits::total             1                       # number of ReadCleanReq MSHR hits
system.l2.ReadCleanReq_mshr_misses::.cpu.inst          498                       # number of ReadCleanReq MSHR misses
system.l2.ReadCleanReq_mshr_misses::total          498                       # number of ReadCleanReq MSHR misses
system.l2.ReadCleanReq_mshr_miss_latency::.cpu.inst     32091500                       # number of ReadCleanReq MSHR miss cycles
system.l2.ReadCleanReq_mshr_miss_latency::total     32091500                       # number of ReadCleanReq MSHR miss cycles
system.l2.ReadCleanReq_mshr_miss_rate::.cpu.inst     0.866087                       # mshr miss rate for ReadCleanReq accesses
system.l2.ReadCleanReq_mshr_miss_rate::total     0.866087                       # mshr miss rate for ReadCleanReq accesses
system.l2.ReadCleanReq_avg_mshr_miss_latency::.cpu.inst 64440.763052                       # average ReadCleanReq mshr miss latency
system.l2.ReadCleanReq_avg_mshr_miss_latency::total 64440.763052                       # average ReadCleanReq mshr miss latency
system.l2.ReadSharedReq_hits::.cpu.data            13                       # number of ReadSharedReq hits
system.l2.ReadSharedReq_hits::total                13                       # number of ReadSharedReq hits
system.l2.ReadSharedReq_misses::.cpu.data          115                       # number of ReadSharedReq misses
system.l2.ReadSharedReq_misses::total             115                       # number of ReadSharedReq misses
system.l2.ReadSharedReq_miss_latency::.cpu.data      9721000                       # number of ReadSharedReq miss cycles
system.l2.ReadSharedReq_miss_latency::total      9721000                       # number of ReadSharedReq miss cycles
system.l2.ReadSharedReq_accesses::.cpu.data          128                       # number of ReadSharedReq accesses(hits+misses)
system.l2.ReadSharedReq_accesses::total           128                       # number of ReadSharedReq accesses(hits+misses)
system.l2.ReadSharedReq_miss_rate::.cpu.data     0.898438                       # miss rate for ReadSharedReq accesses
system.l2.ReadSharedReq_miss_rate::total     0.898438                       # miss rate for ReadSharedReq accesses
system.l2.ReadSharedReq_avg_miss_latency::.cpu.data 84530.434783                       # average ReadSharedReq miss latency
system.l2.ReadSharedReq_avg_miss_latency::total 84530.434783                       # average ReadSharedReq miss latency
system.l2.ReadSharedReq_mshr_hits::.cpu.data            3                       # number of ReadSharedReq MSHR hits
system.l2.ReadSharedReq_mshr_hits::total            3                       # number of ReadSharedReq MSHR hits
system.l2.ReadSharedReq_mshr_misses::.cpu.data          112                       # number of ReadSharedReq MSHR misses
system.l2.ReadSharedReq_mshr_misses::total          112                       # number of ReadSharedReq MSHR misses
system.l2.ReadSharedReq_mshr_miss_latency::.cpu.data      8399500                       # number of ReadSharedReq MSHR miss cycles
system.l2.ReadSharedReq_mshr_miss_latency::total      8399500                       # number of ReadSharedReq MSHR miss cycles
system.l2.ReadSharedReq_mshr_miss_rate::.cpu.data     0.875000                       # mshr miss rate for ReadSharedReq accesses
system.l2.ReadSharedReq_mshr_miss_rate::total     0.875000                       # mshr miss rate for ReadSharedReq accesses
system.l2.ReadSharedReq_avg_mshr_miss_latency::.cpu.data 74995.535714                       # average ReadSharedReq mshr miss latency
system.l2.ReadSharedReq_avg_mshr_miss_latency::total 74995.535714                       # average ReadSharedReq mshr miss latency
system.l2.power_state.pwrStateResidencyTicks::UNDEFINED 174919207000                       # Cumulative time (in ticks) in various power states
system.l2.tags.tagsinuse                  8171.217184                       # Cycle average of tags in use
system.l2.tags.total_refs                     2975000                       # Total number of references to valid blocks.
system.l2.tags.sampled_refs                   1488113                       # Sample count of references to valid blocks.
system.l2.tags.avg_refs                      1.999176                       # Average number of references to valid blocks.
system.l2.tags.warmup_cycle                     77000                       # Cycle when the warmup percentage was hit.
system.l2.tags.occ_blocks::.cpu.inst         2.418087                       # Average occupied blocks per requestor
system.l2.tags.occ_blocks::.cpu.data      8168.799097                       # Average occupied blocks per requestor
system.l2.tags.occ_percent::.cpu.inst        0.000295                       # Average percentage of cache occupancy
system.l2.tags.occ_percent::.cpu.data        0.997168                       # Average percentage of cache occupancy
system.l2.tags.occ_percent::total            0.997463                       # Average percentage of cache occupancy
system.l2.tags.occ_task_id_blocks::1024          8192                       # Occupied blocks per task id
system.l2.tags.age_task_id_blocks_1024::0           84                       # Occupied blocks per task id
system.l2.tags.age_task_id_blocks_1024::1          765                       # Occupied blocks per task id
system.l2.tags.age_task_id_blocks_1024::2         7343                       # Occupied blocks per task id
system.l2.tags.occ_task_id_percent::1024            1                       # Percentage of cache occupancy per task id
system.l2.tags.tag_accesses                  25288145                       # Number of tag accesses
system.l2.tags.data_accesses                 25288145                       # Number of data accesses
system.l2.tags.power_state.pwrStateResidencyTicks::UNDEFINED 174919207000                       # Cumulative time (in ticks) in various power states
system.mem_ctrls.avgPriority_.writebacks::samples   1479327.00                       # Average QoS priority value for accepted requests
system.mem_ctrls.avgPriority_.cpu.inst::samples       498.00                       # Average QoS priority value for accepted requests
system.mem_ctrls.avgPriority_.cpu.data::samples   1487615.00                       # Average QoS priority value for accepted requests
system.mem_ctrls.priorityMinLatency      0.000000018750                       # per QoS priority minimum request to response latency (s)
system.mem_ctrls.priorityMaxLatency      0.000075106500                       # per QoS priority maximum request to response latency (s)
system.mem_ctrls.numReadWriteTurnArounds        92418                       # Number of turnarounds from READ to WRITE
system.mem_ctrls.numWriteReadTurnArounds        92418                       # Number of turnarounds from WRITE to READ
system.mem_ctrls.numStayReadState             4405269                       # Number of times bus staying in READ state
system.mem_ctrls.numStayWriteState            1390649                       # Number of times bus staying in WRITE state
system.mem_ctrls.readReqs                     1488113                       # Number of read requests accepted
system.mem_ctrls.writeReqs                    1479327                       # Number of write requests accepted
system.mem_ctrls.readBursts                   1488113                       # Number of controller read bursts, including those serviced by the write queue
system.mem_ctrls.writeBursts                  1479327                       # Number of controller write bursts, including those merged in the write queue
system.mem_ctrls.servicedByWrQ                      0                       # Number of controller read bursts serviced by the write queue
system.mem_ctrls.mergedWrBursts                     0                       # Number of controller write bursts merged with an existing one
system.mem_ctrls.neitherReadNorWriteReqs            0                       # Number of requests that are neither read nor write
system.mem_ctrls.avgRdQLen                       1.00                       # Average read queue length when enqueuing
system.mem_ctrls.avgWrQLen                      25.76                       # Average write queue length when enqueuing
system.mem_ctrls.numRdRetry                         0                       # Number of times read queue was full causing retry
system.mem_ctrls.numWrRetry                         0                       # Number of times write queue was full causing retry
system.mem_ctrls.readPktSize::0                     0                       # Read request sizes (log2)
system.mem_ctrls.readPktSize::1                     0                       # Read request sizes (log2)
system.mem_ctrls.readPktSize::2                     0                       # Read request sizes (log2)
system.mem_ctrls.readPktSize::3                     0                       # Read request sizes (log2)
system.mem_ctrls.readPktSize::4                     0                       # Read request sizes (log2)
system.mem_ctrls.readPktSize::5                     0                       # Read request sizes (log2)
system.mem_ctrls.readPktSize::6               1488113                       # Read request sizes (log2)
system.mem_ctrls.writePktSize::0                    0                       # Write request sizes (log2)
system.mem_ctrls.writePktSize::1                    0                       # Write request sizes (log2)
system.mem_ctrls.writePktSize::2                    0                       # Write request sizes (log2)
system.mem_ctrls.writePktSize::3                    0                       # Write request sizes (log2)
system.mem_ctrls.writePktSize::4                    0                       # Write request sizes (log2)
system.mem_ctrls.writePktSize::5                    0                       # Write request sizes (log2)
system.mem_ctrls.writePktSize::6              1479327                       # Write request sizes (log2)
system.mem_ctrls.rdQLenPdf::0                 1488019                       # What read queue length does an incoming req see
system.mem_ctrls.rdQLenPdf::1                      87                       # What read queue length does an incoming req see
system.mem_ctrls.rdQLenPdf::2                       6                       # What read queue length does an incoming req see
system.mem_ctrls.rdQLenPdf::3                       1                       # What read queue length does an incoming req see
system.mem_ctrls.rdQLenPdf::4                       0                       # What read queue length does an incoming req see
system.mem_ctrls.rdQLenPdf::5                       0                       # What read queue length does an incoming req see
system.mem_ctrls.rdQLenPdf::6                       0                       # What read queue length does an incoming req see
system.mem_ctrls.rdQLenPdf::7                       0                       # What read queue length does an incoming req see
system.mem_ctrls.rdQLenPdf::8                       0                       # What read queue length does an incoming req see
system.mem_ctrls.rdQLenPdf::9                       0                       # What read queue length does an incoming req see
system.mem_ctrls.rdQLenPdf::10                      0                       # What read queue length does an incoming req see
system.mem_ctrls.rdQLenPdf::11                      0                       # What read queue length does an incoming req see
system.mem_ctrls.rdQLenPdf::12                      0                       # What read queue length does an incoming req see
system.mem_ctrls.rdQLenPdf::13                      0                       # What read queue length does an incoming req see
[...]
system.mem_ctrls.dram.bw_write::.writebacks    541260903                       # Write bandwidth from this memory (bytes/s)
system.mem_ctrls.dram.bw_write::total       541260903                       # Write bandwidth from this memory (bytes/s)
system.mem_ctrls.dram.bw_total::.writebacks    541260903                       # Total bandwidth to/from this memory (bytes/s)
system.mem_ctrls.dram.bw_total::.cpu.inst       182210                       # Total bandwidth to/from this memory (bytes/s)
system.mem_ctrls.dram.bw_total::.cpu.data    544293343                       # Total bandwidth to/from this memory (bytes/s)
system.mem_ctrls.dram.bw_total::total      1085736457                       # Total bandwidth to/from this memory (bytes/s)
system.mem_ctrls.dram.readBursts              1488113                       # Number of DRAM read bursts
system.mem_ctrls.dram.writeBursts             1479306                       # Number of DRAM write bursts
system.mem_ctrls.dram.perBankRdBursts::0        93032                       # Per bank write bursts
system.mem_ctrls.dram.perBankRdBursts::1        92977                       # Per bank write bursts
system.mem_ctrls.dram.perBankRdBursts::2        93001                       # Per bank write bursts
system.mem_ctrls.dram.perBankRdBursts::3        92952                       # Per bank write bursts
system.mem_ctrls.dram.perBankRdBursts::4        92981                       # Per bank write bursts
system.mem_ctrls.dram.perBankRdBursts::5        93010                       # Per bank write bursts
system.mem_ctrls.dram.perBankRdBursts::6        93062                       # Per bank write bursts
system.mem_ctrls.dram.perBankRdBursts::7        93077                       # Per bank write bursts
system.mem_ctrls.dram.perBankRdBursts::8        93154                       # Per bank write bursts
system.mem_ctrls.dram.perBankRdBursts::9        93077                       # Per bank write bursts
system.mem_ctrls.dram.perBankRdBursts::10        92960                       # Per bank write bursts
system.mem_ctrls.dram.perBankRdBursts::11        92950                       # Per bank write bursts
system.mem_ctrls.dram.perBankRdBursts::12        92996                       # Per bank write bursts
system.mem_ctrls.dram.perBankRdBursts::13        92953                       # Per bank write bursts
system.mem_ctrls.dram.perBankRdBursts::14        92960                       # Per bank write bursts
system.mem_ctrls.dram.perBankRdBursts::15        92971                       # Per bank write bursts
system.mem_ctrls.dram.perBankWrBursts::0        92419                       # Per bank write bursts
system.mem_ctrls.dram.perBankWrBursts::1        92456                       # Per bank write bursts
system.mem_ctrls.dram.perBankWrBursts::2        92441                       # Per bank write bursts
system.mem_ctrls.dram.perBankWrBursts::3        92431                       # Per bank write bursts
system.mem_ctrls.dram.perBankWrBursts::4        92422                       # Per bank write bursts
system.mem_ctrls.dram.perBankWrBursts::5        92481                       # Per bank write bursts
system.mem_ctrls.dram.perBankWrBursts::6        92544                       # Per bank write bursts
system.mem_ctrls.dram.perBankWrBursts::7        92544                       # Per bank write bursts
system.mem_ctrls.dram.perBankWrBursts::8        92544                       # Per bank write bursts
system.mem_ctrls.dram.perBankWrBursts::9        92528                       # Per bank write bursts
system.mem_ctrls.dram.perBankWrBursts::10        92416                       # Per bank write bursts
system.mem_ctrls.dram.perBankWrBursts::11        92416                       # Per bank write bursts
system.mem_ctrls.dram.perBankWrBursts::12        92416                       # Per bank write bursts
system.mem_ctrls.dram.perBankWrBursts::13        92416                       # Per bank write bursts
system.mem_ctrls.dram.perBankWrBursts::14        92416                       # Per bank write bursts
system.mem_ctrls.dram.perBankWrBursts::15        92416                       # Per bank write bursts
system.mem_ctrls.dram.totQLat             15007374250                       # Total ticks spent queuing
system.mem_ctrls.dram.totBusLat            7440565000                       # Total ticks spent in databus transfers
system.mem_ctrls.dram.totMemAccLat        42909493000                       # Total ticks spent from burst creation until serviced by the DRAM
system.mem_ctrls.dram.avgQLat                10084.84                       # Average queueing delay per DRAM burst
system.mem_ctrls.dram.avgBusLat               5000.00                       # Average bus latency per DRAM burst
system.mem_ctrls.dram.avgMemAccLat           28834.84                       # Average memory access latency per DRAM burst
system.mem_ctrls.dram.readRowHits             1367311                       # Number of row buffer hits during reads
system.mem_ctrls.dram.writeRowHits            1384434                       # Number of row buffer hits during writes
system.mem_ctrls.dram.readRowHitRate            91.88                       # Row buffer hit rate for reads
system.mem_ctrls.dram.writeRowHitRate           93.59                       # Row buffer hit rate for writes
system.mem_ctrls.dram.bytesPerActivate::samples       215673                       # Bytes accessed per row activation
system.mem_ctrls.dram.bytesPerActivate::mean   880.566858                       # Bytes accessed per row activation
system.mem_ctrls.dram.bytesPerActivate::gmean   764.717480                       # Bytes accessed per row activation
system.mem_ctrls.dram.bytesPerActivate::stdev   288.011165                       # Bytes accessed per row activation
system.mem_ctrls.dram.bytesPerActivate::0-127        11003      5.10%      5.10% # Bytes accessed per row activation
system.mem_ctrls.dram.bytesPerActivate::128-255         6262      2.90%      8.01% # Bytes accessed per row activation
system.mem_ctrls.dram.bytesPerActivate::256-383         4848      2.25%     10.25% # Bytes accessed per row activation
system.mem_ctrls.dram.bytesPerActivate::384-511         7063      3.27%     13.53% # Bytes accessed per row activation
system.mem_ctrls.dram.bytesPerActivate::512-639         5082      2.36%     15.88% # Bytes accessed per row activation
system.mem_ctrls.dram.bytesPerActivate::640-767         7175      3.33%     19.21% # Bytes accessed per row activation
system.mem_ctrls.dram.bytesPerActivate::768-895         5367      2.49%     21.70% # Bytes accessed per row activation
system.mem_ctrls.dram.bytesPerActivate::896-1023        15034      6.97%     28.67% # Bytes accessed per row activation
system.mem_ctrls.dram.bytesPerActivate::1024-1151       153839     71.33%    100.00% # Bytes accessed per row activation
system.mem_ctrls.dram.bytesPerActivate::total       215673                       # Bytes accessed per row activation
system.mem_ctrls.dram.bytesRead              95239232                       # Total number of bytes read from DRAM
system.mem_ctrls.dram.bytesWritten           94675584                       # Total number of bytes written to DRAM
system.mem_ctrls.dram.avgRdBW              544.475553                       # Average DRAM read bandwidth in MiBytes/s
system.mem_ctrls.dram.avgWrBW              541.253220                       # Average DRAM write bandwidth in MiBytes/s
system.mem_ctrls.dram.peakBW                 12800.00                       # Theoretical peak bandwidth in MiByte/s
system.mem_ctrls.dram.busUtil                    8.48                       # Data bus utilization in percentage
system.mem_ctrls.dram.busUtilRead                4.25                       # Data bus utilization in percentage for reads
system.mem_ctrls.dram.busUtilWrite               4.23                       # Data bus utilization in percentage for writes
system.mem_ctrls.dram.pageHitRate               92.73                       # Row buffer hit rate, read and write combined
system.mem_ctrls.dram.power_state.pwrStateResidencyTicks::UNDEFINED 174919207000                       # Cumulative time (in ticks) in various power states
system.mem_ctrls.dram.rank0.actEnergy       769813380                       # Energy for activate commands per rank (pJ)
system.mem_ctrls.dram.rank0.preEnergy       409165515                       # Energy for precharge commands per rank (pJ)
system.mem_ctrls.dram.rank0.readEnergy     5312816880                       # Energy for read commands per rank (pJ)
system.mem_ctrls.dram.rank0.writeEnergy    3861432360                       # Energy for write commands per rank (pJ)
system.mem_ctrls.dram.rank0.refreshEnergy 13807887600.000002                       # Energy for refresh commands per rank (pJ)
system.mem_ctrls.dram.rank0.actBackEnergy  40051433610                       # Energy for active background per rank (pJ)
system.mem_ctrls.dram.rank0.preBackEnergy  33441452640                       # Energy for precharge background per rank (pJ)
system.mem_ctrls.dram.rank0.actPowerDownEnergy            0                       # Energy for active power-down per rank (pJ)
system.mem_ctrls.dram.rank0.prePowerDownEnergy            0                       # Energy for precharge power-down per rank (pJ)
system.mem_ctrls.dram.rank0.selfRefreshEnergy            0                       # Energy for self refresh per rank (pJ)
system.mem_ctrls.dram.rank0.totalEnergy   97654001985                       # Total energy per rank (pJ)
system.mem_ctrls.dram.rank0.averagePower   558.280612                       # Core power per rank (mW)
system.mem_ctrls.dram.rank0.totalIdleTime            0                       # Total Idle time Per DRAM Rank
system.mem_ctrls.dram.rank0.pwrStateTime::IDLE  85548452000                       # Time in different power states
system.mem_ctrls.dram.rank0.pwrStateTime::REF   5840900000                       # Time in different power states
system.mem_ctrls.dram.rank0.pwrStateTime::SREF            0                       # Time in different power states
system.mem_ctrls.dram.rank0.pwrStateTime::PRE_PDN            0                       # Time in different power states
system.mem_ctrls.dram.rank0.pwrStateTime::ACT  83529855000                       # Time in different power states
system.mem_ctrls.dram.rank0.pwrStateTime::ACT_PDN            0                       # Time in different power states
system.mem_ctrls.dram.rank1.actEnergy       770098980                       # Energy for activate commands per rank (pJ)
system.mem_ctrls.dram.rank1.preEnergy       409313520                       # Energy for precharge commands per rank (pJ)
system.mem_ctrls.dram.rank1.readEnergy     5312309940                       # Energy for read commands per rank (pJ)
system.mem_ctrls.dram.rank1.writeEnergy    3860544960                       # Energy for write commands per rank (pJ)
system.mem_ctrls.dram.rank1.refreshEnergy 13807887600.000002                       # Energy for refresh commands per rank (pJ)
system.mem_ctrls.dram.rank1.actBackEnergy  40008903630                       # Energy for active background per rank (pJ)
system.mem_ctrls.dram.rank1.preBackEnergy  33477267360                       # Energy for precharge background per rank (pJ)
system.mem_ctrls.dram.rank1.actPowerDownEnergy            0                       # Energy for active power-down per rank (pJ)
system.mem_ctrls.dram.rank1.prePowerDownEnergy            0                       # Energy for precharge power-down per rank (pJ)
system.mem_ctrls.dram.rank1.selfRefreshEnergy            0                       # Energy for self refresh per rank (pJ)
system.mem_ctrls.dram.rank1.totalEnergy   97646325990                       # Total energy per rank (pJ)
system.mem_ctrls.dram.rank1.averagePower   558.236729                       # Core power per rank (mW)
system.mem_ctrls.dram.rank1.totalIdleTime            0                       # Total Idle time Per DRAM Rank
system.mem_ctrls.dram.rank1.pwrStateTime::IDLE  85635087000                       # Time in different power states
system.mem_ctrls.dram.rank1.pwrStateTime::REF   5840900000                       # Time in different power states
system.mem_ctrls.dram.rank1.pwrStateTime::SREF            0                       # Time in different power states
system.mem_ctrls.dram.rank1.pwrStateTime::PRE_PDN            0                       # Time in different power states
system.mem_ctrls.dram.rank1.pwrStateTime::ACT  83443220000                       # Time in different power states
system.mem_ctrls.dram.rank1.pwrStateTime::ACT_PDN            0                       # Time in different power states
system.mem_ctrls.power_state.pwrStateResidencyTicks::UNDEFINED 174919207000                       # Cumulative time (in ticks) in various power states
system.membus.trans_dist::ReadResp                610                       # Transaction distribution
system.membus.trans_dist::WritebackDirty      1479327                       # Transaction distribution
system.membus.trans_dist::CleanEvict              238                       # Transaction distribution
system.membus.trans_dist::ReadExReq           1487503                       # Transaction distribution
system.membus.trans_dist::ReadExResp          1487503                       # Transaction distribution
system.membus.trans_dist::ReadSharedReq           610                       # Transaction distribution
system.membus.pkt_count_system.l2.mem_side_port::system.mem_ctrls.port      4455791                       # Packet count per connected requestor and responder (bytes)
system.membus.pkt_count::total                4455791                       # Packet count per connected requestor and responder (bytes)
system.membus.pkt_size_system.l2.mem_side_port::system.mem_ctrls.port    189916160                       # Cumulative packet size per connected requestor and responder (bytes)
system.membus.pkt_size::total               189916160                       # Cumulative packet size per connected requestor and responder (bytes)
system.membus.snoops                                0                       # Total snoops (count)
system.membus.snoopTraffic                          0                       # Total snoop traffic (bytes)
system.membus.snoop_fanout::samples           1488113                       # Request fanout histogram
system.membus.snoop_fanout::mean                    0                       # Request fanout histogram
system.membus.snoop_fanout::stdev                   0                       # Request fanout histogram
system.membus.snoop_fanout::underflows              0      0.00%      0.00% # Request fanout histogram
system.membus.snoop_fanout::0                 1488113    100.00%    100.00% # Request fanout histogram
system.membus.snoop_fanout::1                       0      0.00%    100.00% # Request fanout histogram
system.membus.snoop_fanout::overflows               0      0.00%    100.00% # Request fanout histogram
system.membus.snoop_fanout::min_value               0                       # Request fanout histogram
system.membus.snoop_fanout::max_value               0                       # Request fanout histogram
system.membus.snoop_fanout::total             1488113                       # Request fanout histogram
system.membus.power_state.pwrStateResidencyTicks::UNDEFINED 174919207000                       # Cumulative time (in ticks) in various power states
system.membus.reqLayer0.occupancy          9475407500                       # Layer occupancy (ticks)
system.membus.reqLayer0.utilization               5.4                       # Layer utilization (%)
system.membus.respLayer1.occupancy         7840238250                       # Layer occupancy (ticks)
system.membus.respLayer1.utilization              4.5                       # Layer utilization (%)
system.tol2bus.trans_dist::ReadResp               703                       # Transaction distribution
system.tol2bus.trans_dist::WritebackDirty      2965824                       # Transaction distribution
system.tol2bus.trans_dist::WritebackClean          220                       # Transaction distribution
system.tol2bus.trans_dist::CleanEvict             704                       # Transaction distribution
system.tol2bus.trans_dist::ReadExReq          1487503                       # Transaction distribution
system.tol2bus.trans_dist::ReadExResp         1487503                       # Transaction distribution
system.tol2bus.trans_dist::ReadCleanReq           575                       # Transaction distribution
system.tol2bus.trans_dist::ReadSharedReq          128                       # Transaction distribution
system.tol2bus.pkt_count_system.cpu.icache.mem_side_port::system.l2.cpu_side_port         1370                       # Packet count per connected requestor and responder (bytes)
system.tol2bus.pkt_count_system.cpu.dcache.mem_side_port::system.l2.cpu_side_port      4461869                       # Packet count per connected requestor and responder (bytes)
system.tol2bus.pkt_count::total               4463239                       # Packet count per connected requestor and responder (bytes)
system.tol2bus.pkt_size_system.cpu.icache.mem_side_port::system.l2.cpu_side_port        50880                       # Cumulative packet size per connected requestor and responder (bytes)
system.tol2bus.pkt_size_system.cpu.dcache.mem_side_port::system.l2.cpu_side_port    190344192                       # Cumulative packet size per connected requestor and responder (bytes)
system.tol2bus.pkt_size::total              190395072                       # Cumulative packet size per connected requestor and responder (bytes)
system.tol2bus.snoops                         1479921                       # Total snoops (count)
system.tol2bus.snoopTraffic                  94676928                       # Total snoop traffic (bytes)
system.tol2bus.snoop_fanout::samples          2968127                       # Request fanout histogram
system.tol2bus.snoop_fanout::mean            0.000130                       # Request fanout histogram
system.tol2bus.snoop_fanout::stdev           0.011447                       # Request fanout histogram
system.tol2bus.snoop_fanout::underflows             0      0.00%      0.00% # Request fanout histogram
system.tol2bus.snoop_fanout::0                2967741     99.99%     99.99% # Request fanout histogram
system.tol2bus.snoop_fanout::1                    385      0.01%    100.00% # Request fanout histogram
system.tol2bus.snoop_fanout::2                      1      0.00%    100.00% # Request fanout histogram
system.tol2bus.snoop_fanout::overflows              0      0.00%    100.00% # Request fanout histogram
system.tol2bus.snoop_fanout::min_value              0                       # Request fanout histogram
system.tol2bus.snoop_fanout::max_value              2                       # Request fanout histogram
system.tol2bus.snoop_fanout::total            2968127                       # Request fanout histogram
system.tol2bus.power_state.pwrStateResidencyTicks::UNDEFINED 174919207000                       # Cumulative time (in ticks) in various power states
system.tol2bus.reqLayer0.occupancy         2974233500                       # Layer occupancy (ticks)
system.tol2bus.reqLayer0.utilization              1.7                       # Layer utilization (%)
system.tol2bus.respLayer0.occupancy            862999                       # Layer occupancy (ticks)
system.tol2bus.respLayer0.utilization             0.0                       # Layer utilization (%)
system.tol2bus.respLayer1.occupancy        2231447997                       # Layer occupancy (ticks)
system.tol2bus.respLayer1.utilization             1.3                       # Layer utilization (%)
system.voltage_domain.voltage                       1                       # Voltage in Volts

---------- End Simulation Statistics   ----------
