
---------- Begin Simulation Statistics ----------
final_tick                                83616388000                       # Number of ticks from beginning of simulation (restored from checkpoints and never reset)
host_inst_rate                                 391863                       # Simulator instruction rate (inst/s)
host_mem_usage                                 669568                       # Number of bytes of host memory used
host_op_rate                                   392632                       # Simulator op (including micro ops) rate (op/s)
host_seconds                                   255.19                       # Real time elapsed on the host
host_tick_rate                              327661417                       # Simulator tick rate (ticks/s)
sim_freq                                 1000000000000                       # Frequency of simulated ticks
sim_insts                                   100000001                       # Number of instructions simulated
sim_ops                                     100196356                       # Number of ops (including micro ops) simulated
sim_seconds                                  0.083616                       # Number of seconds simulated
sim_ticks                                 83616388000                       # Number of ticks simulated
system.cpu.committedInsts                   100000001                       # Number of instructions committed
system.cpu.committedOps                     100196356                       # Number of ops (including micro ops) committed
system.cpu.cpi                               1.672328                       # CPI: cycles per instruction
system.cpu.discardedOps                        189428                       # Number of ops (including micro ops) which were discarded before commit
system.cpu.idleCycles                        34515186                       # Total number of cycles that the object has spent stopped
system.cpu.ipc                               0.597969                       # IPC: instructions per cycle
system.cpu.numCycles                        167232776                       # number of cpu cycles simulated
system.cpu.numFetchSuspends                         0                       # Number of times Execute suspended instruction fetching
system.cpu.numWorkItemsCompleted                    0                       # number of work items this cpu completed
system.cpu.numWorkItemsStarted                      0                       # number of work items this cpu started
system.cpu.op_class_0::No_OpClass                   0      0.00%      0.00% # Class of committed instruction
system.cpu.op_class_0::IntAlu                46526863     46.44%     46.44% # Class of committed instruction
system.cpu.op_class_0::IntMult                  20723      0.02%     46.46% # Class of committed instruction
system.cpu.op_class_0::IntDiv                       0      0.00%     46.46% # Class of committed instruction
system.cpu.op_class_0::FloatAdd                     0      0.00%     46.46% # Class of committed instruction
system.cpu.op_class_0::FloatCmp                     0      0.00%     46.46% # Class of committed instruction
system.cpu.op_class_0::FloatCvt                     0      0.00%     46.46% # Class of committed instruction
system.cpu.op_class_0::FloatMult                    0      0.00%     46.46% # Class of committed instruction
system.cpu.op_class_0::FloatMultAcc                 0      0.00%     46.46% # Class of committed instruction
system.cpu.op_class_0::FloatDiv                     0      0.00%     46.46% # Class of committed instruction
system.cpu.op_class_0::FloatMisc                    0      0.00%     46.46% # Class of committed instruction
system.cpu.op_class_0::FloatSqrt                    0      0.00%     46.46% # Class of committed instruction
system.cpu.op_class_0::SimdAdd                      0      0.00%     46.46% # Class of committed instruction
system.cpu.op_class_0::SimdAddAcc                   0      0.00%     46.46% # Class of committed instruction
system.cpu.op_class_0::SimdAlu                      0      0.00%     46.46% # Class of committed instruction
system.cpu.op_class_0::SimdCmp                      0      0.00%     46.46% # Class of committed instruction
system.cpu.op_class_0::SimdCvt                      0      0.00%     46.46% # Class of committed instruction
system.cpu.op_class_0::SimdMisc                     0      0.00%     46.46% # Class of committed instruction
system.cpu.op_class_0::SimdMult                     0      0.00%     46.46% # Class of committed instruction
system.cpu.op_class_0::SimdMultAcc                  0      0.00%     46.46% # Class of committed instruction
system.cpu.op_class_0::SimdShift                    0      0.00%     46.46% # Class of committed instruction
system.cpu.op_class_0::SimdShiftAcc                 0      0.00%     46.46% # Class of committed instruction
system.cpu.op_class_0::SimdDiv                      0      0.00%     46.46% # Class of committed instruction
system.cpu.op_class_0::SimdSqrt                     0      0.00%     46.46% # Class of committed instruction
system.cpu.op_class_0::SimdFloatAdd                 0      0.00%     46.46% # Class of committed instruction
system.cpu.op_class_0::SimdFloatAlu                 0      0.00%     46.46% # Class of committed instruction
system.cpu.op_class_0::SimdFloatCmp                 0      0.00%     46.46% # Class of committed instruction
system.cpu.op_class_0::SimdFloatCvt                 0      0.00%     46.46% # Class of committed instruction
system.cpu.op_class_0::SimdFloatDiv                 0      0.00%     46.46% # Class of committed instruction
system.cpu.op_class_0::SimdFloatMisc               18      0.00%     46.46% # Class of committed instruction
system.cpu.op_class_0::SimdFloatMult                0      0.00%     46.46% # Class of committed instruction
system.cpu.op_class_0::SimdFloatMultAcc             0      0.00%     46.46% # Class of committed instruction
system.cpu.op_class_0::SimdFloatSqrt                0      0.00%     46.46% # Class of committed instruction
system.cpu.op_class_0::SimdReduceAdd                0      0.00%     46.46% # Class of committed instruction
system.cpu.op_class_0::SimdReduceAlu                0      0.00%     46.46% # Class of committed instruction
system.cpu.op_class_0::SimdReduceCmp                0      0.00%     46.46% # Class of committed instruction
system.cpu.op_class_0::SimdFloatReduceAdd            0      0.00%     46.46% # Class of committed instruction
system.cpu.op_class_0::SimdFloatReduceCmp            0      0.00%     46.46% # Class of committed instruction
system.cpu.op_class_0::SimdAes                      0      0.00%     46.46% # Class of committed instruction
system.cpu.op_class_0::SimdAesMix                   0      0.00%     46.46% # Class of committed instruction
system.cpu.op_class_0::SimdSha1Hash                 0      0.00%     46.46% # Class of committed instruction
system.cpu.op_class_0::SimdSha1Hash2                0      0.00%     46.46% # Class of committed instruction
system.cpu.op_class_0::SimdSha256Hash               0      0.00%     46.46% # Class of committed instruction
system.cpu.op_class_0::SimdSha256Hash2              0      0.00%     46.46% # Class of committed instruction
system.cpu.op_class_0::SimdShaSigma2                0      0.00%     46.46% # Class of committed instruction
system.cpu.op_class_0::SimdShaSigma3                0      0.00%     46.46% # Class of committed instruction
system.cpu.op_class_0::SimdPredAlu                  0      0.00%     46.46% # Class of committed instruction
system.cpu.op_class_0::MemRead               42690537     42.61%     89.06% # Class of committed instruction
system.cpu.op_class_0::MemWrite              10958215     10.94%    100.00% # Class of committed instruction
system.cpu.op_class_0::FloatMemRead                 0      0.00%    100.00% # Class of committed instruction
system.cpu.op_class_0::FloatMemWrite                0      0.00%    100.00% # Class of committed instruction
system.cpu.op_class_0::IprAccess                    0      0.00%    100.00% # Class of committed instruction
system.cpu.op_class_0::InstPrefetch                 0      0.00%    100.00% # Class of committed instruction
system.cpu.op_class_0::total                100196356                       # Class of committed instruction
system.cpu.tickCycles                       132717590                       # Number of cycles that the object actually ticked
system.cpu.workload.numSyscalls                    85                       # Number of system calls
system.membus.snoop_filter.hit_multi_requests            0                       # Number of requests hitting in the snoop filter with multiple (>1) holders of the requested data.
system.membus.snoop_filter.hit_multi_snoops            0                       # Number of snoops hitting in the snoop filter with multiple (>1) holders of the requested data.
system.membus.snoop_filter.hit_single_requests       168726                       # Number of requests hitting in the snoop filter with a single holder of the requested data.
system.membus.snoop_filter.hit_single_snoops            0                       # Number of snoops hitting in the snoop filter with a single holder of the requested data.
system.membus.snoop_filter.tot_requests        370587                       # Total number of requests made to the snoop filter.
system.membus.snoop_filter.tot_snoops               0                       # Total number of snoops made to the snoop filter.
system.tol2bus.snoop_filter.hit_multi_requests           75                       # Number of requests hitting in the snoop filter with multiple (>1) holders of the requested data.
system.tol2bus.snoop_filter.hit_multi_snoops            0                       # Number of snoops hitting in the snoop filter with multiple (>1) holders of the requested data.
system.tol2bus.snoop_filter.hit_single_requests       682097                       # Number of requests hitting in the snoop filter with a single holder of the requested data.
system.tol2bus.snoop_filter.hit_single_snoops          516                       # Number of snoops hitting in the snoop filter with a single holder of the requested data.
system.tol2bus.snoop_filter.tot_requests      1365654                       # Total number of requests made to the snoop filter.
system.tol2bus.snoop_filter.tot_snoops            516                       # Total number of snoops made to the snoop filter.
system.clk_domain.clock                          1000                       # Clock period in ticks
system.cpu.branchPred.lookups                 4485795                       # Number of BP lookups
system.cpu.branchPred.condPredicted           3735488                       # Number of conditional branches predicted
system.cpu.branchPred.condIncorrect             81005                       # Number of conditional branches incorrect
system.cpu.branchPred.BTBLookups              2103808                       # Number of BTB lookups
system.cpu.branchPred.BTBHits                 2101807                       # Number of BTB hits
system.cpu.branchPred.BTBHitPct             99.904887                       # BTB Hit Percentage
system.cpu.branchPred.RASUsed                   65379                       # Number of times the RAS was used to get a target.
system.cpu.branchPred.RASIncorrect                 14                       # Number of incorrect RAS predictions.
system.cpu.branchPred.indirectLookups             692                       # Number of indirect predictor lookups.
system.cpu.branchPred.indirectHits                288                       # Number of indirect target hits.
system.cpu.branchPred.indirectMisses              404                       # Number of indirect misses.
system.cpu.branchPred.indirectMispredicted          171                       # Number of mispredicted indirect branches.
system.cpu.dcache.demand_hits::.cpu.data     51327016                       # number of demand (read+write) hits
system.cpu.dcache.demand_hits::total         51327016                       # number of demand (read+write) hits
system.cpu.dcache.overall_hits::.cpu.data     51327526                       # number of overall hits
system.cpu.dcache.overall_hits::total        51327526                       # number of overall hits
system.cpu.dcache.demand_misses::.cpu.data       737122                       # number of demand (read+write) misses
system.cpu.dcache.demand_misses::total         737122                       # number of demand (read+write) misses
system.cpu.dcache.overall_misses::.cpu.data       745031                       # number of overall misses
system.cpu.dcache.overall_misses::total        745031                       # number of overall misses
system.cpu.dcache.demand_miss_latency::.cpu.data  24678524500                       # number of demand (read+write) miss cycles
system.cpu.dcache.demand_miss_latency::total  24678524500                       # number of demand (read+write) miss cycles
system.cpu.dcache.overall_miss_latency::.cpu.data  24678524500                       # number of overall miss cycles
system.cpu.dcache.overall_miss_latency::total  24678524500                       # number of overall miss cycles
system.cpu.dcache.demand_accesses::.cpu.data     52064138                       # number of demand (read+write) accesses
system.cpu.dcache.demand_accesses::total     52064138                       # number of demand (read+write) accesses
system.cpu.dcache.overall_accesses::.cpu.data     52072557                       # number of overall (read+write) accesses
system.cpu.dcache.overall_accesses::total     52072557                       # number of overall (read+write) accesses
system.cpu.dcache.demand_miss_rate::.cpu.data     0.014158                       # miss rate for demand accesses
system.cpu.dcache.demand_miss_rate::total     0.014158                       # miss rate for demand accesses
system.cpu.dcache.overall_miss_rate::.cpu.data     0.014308                       # miss rate for overall accesses
system.cpu.dcache.overall_miss_rate::total     0.014308                       # miss rate for overall accesses
system.cpu.dcache.demand_avg_miss_latency::.cpu.data 33479.565798                       # average overall miss latency
system.cpu.dcache.demand_avg_miss_latency::total 33479.565798                       # average overall miss latency
system.cpu.dcache.overall_avg_miss_latency::.cpu.data 33124.157921                       # average overall miss latency
system.cpu.dcache.overall_avg_miss_latency::total 33124.157921                       # average overall miss latency
system.cpu.dcache.blocked_cycles::no_mshrs       211495                       # number of cycles access was blocked
system.cpu.dcache.blocked_cycles::no_targets            0                       # number of cycles access was blocked
system.cpu.dcache.blocked::no_mshrs              3200                       # number of cycles access was blocked
system.cpu.dcache.blocked::no_targets               0                       # number of cycles access was blocked
system.cpu.dcache.avg_blocked_cycles::no_mshrs    66.092187                       # average number of cycles each access was blocked
system.cpu.dcache.avg_blocked_cycles::no_targets          nan                       # average number of cycles each access was blocked
system.cpu.dcache.writebacks::.writebacks       608048                       # number of writebacks
system.cpu.dcache.writebacks::total            608048                       # number of writebacks
system.cpu.dcache.demand_mshr_hits::.cpu.data        62241                       # number of demand (read+write) MSHR hits
system.cpu.dcache.demand_mshr_hits::total        62241                       # number of demand (read+write) MSHR hits
system.cpu.dcache.overall_mshr_hits::.cpu.data        62241                       # number of overall MSHR hits
system.cpu.dcache.overall_mshr_hits::total        62241                       # number of overall MSHR hits
system.cpu.dcache.demand_mshr_misses::.cpu.data       674881                       # number of demand (read+write) MSHR misses
system.cpu.dcache.demand_mshr_misses::total       674881                       # number of demand (read+write) MSHR misses
system.cpu.dcache.overall_mshr_misses::.cpu.data       682786                       # number of overall MSHR misses
system.cpu.dcache.overall_mshr_misses::total       682786                       # number of overall MSHR misses
system.cpu.dcache.demand_mshr_miss_latency::.cpu.data  22395200500                       # number of demand (read+write) MSHR miss cycles
system.cpu.dcache.demand_mshr_miss_latency::total  22395200500                       # number of demand (read+write) MSHR miss cycles
system.cpu.dcache.overall_mshr_miss_latency::.cpu.data  23053307499                       # number of overall MSHR miss cycles
system.cpu.dcache.overall_mshr_miss_latency::total  23053307499                       # number of overall MSHR miss cycles
system.cpu.dcache.demand_mshr_miss_rate::.cpu.data     0.012962                       # mshr miss rate for demand accesses
system.cpu.dcache.demand_mshr_miss_rate::total     0.012962                       # mshr miss rate for demand accesses
system.cpu.dcache.overall_mshr_miss_rate::.cpu.data     0.013112                       # mshr miss rate for overall accesses
system.cpu.dcache.overall_mshr_miss_rate::total     0.013112                       # mshr miss rate for overall accesses
system.cpu.dcache.demand_avg_mshr_miss_latency::.cpu.data 33183.925018                       # average overall mshr miss latency
system.cpu.dcache.demand_avg_mshr_miss_latency::total 33183.925018                       # average overall mshr miss latency
system.cpu.dcache.overall_avg_mshr_miss_latency::.cpu.data 33763.591373                       # average overall mshr miss latency
system.cpu.dcache.overall_avg_mshr_miss_latency::total 33763.591373                       # average overall mshr miss latency
system.cpu.dcache.replacements                 681762                       # number of replacements
system.cpu.dcache.ReadReq_hits::.cpu.data     40726645                       # number of ReadReq hits
system.cpu.dcache.ReadReq_hits::total        40726645                       # number of ReadReq hits
system.cpu.dcache.ReadReq_misses::.cpu.data       388411                       # number of ReadReq misses
system.cpu.dcache.ReadReq_misses::total        388411                       # number of ReadReq misses
system.cpu.dcache.ReadReq_miss_latency::.cpu.data   8925359500                       # number of ReadReq miss cycles
system.cpu.dcache.ReadReq_miss_latency::total   8925359500                       # number of ReadReq miss cycles
system.cpu.dcache.ReadReq_accesses::.cpu.data     41115056                       # number of ReadReq accesses(hits+misses)
system.cpu.dcache.ReadReq_accesses::total     41115056                       # number of ReadReq accesses(hits+misses)
system.cpu.dcache.ReadReq_miss_rate::.cpu.data     0.009447                       # miss rate for ReadReq accesses
system.cpu.dcache.ReadReq_miss_rate::total     0.009447                       # miss rate for ReadReq accesses
system.cpu.dcache.ReadReq_avg_miss_latency::.cpu.data 22979.162537                       # average ReadReq miss latency
system.cpu.dcache.ReadReq_avg_miss_latency::total 22979.162537                       # average ReadReq miss latency
system.cpu.dcache.ReadReq_mshr_hits::.cpu.data          304                       # number of ReadReq MSHR hits
system.cpu.dcache.ReadReq_mshr_hits::total          304                       # number of ReadReq MSHR hits
system.cpu.dcache.ReadReq_mshr_misses::.cpu.data       388107                       # number of ReadReq MSHR misses
system.cpu.dcache.ReadReq_mshr_misses::total       388107                       # number of ReadReq MSHR misses
system.cpu.dcache.ReadReq_mshr_miss_latency::.cpu.data   8525506500                       # number of ReadReq MSHR miss cycles
system.cpu.dcache.ReadReq_mshr_miss_latency::total   8525506500                       # number of ReadReq MSHR miss cycles
system.cpu.dcache.ReadReq_mshr_miss_rate::.cpu.data     0.009440                       # mshr miss rate for ReadReq accesses
system.cpu.dcache.ReadReq_mshr_miss_rate::total     0.009440                       # mshr miss rate for ReadReq accesses
system.cpu.dcache.ReadReq_avg_mshr_miss_latency::.cpu.data 21966.897016                       # average ReadReq mshr miss latency
system.cpu.dcache.ReadReq_avg_mshr_miss_latency::total 21966.897016                       # average ReadReq mshr miss latency
system.cpu.dcache.WriteReq_hits::.cpu.data     10600371                       # number of WriteReq hits
system.cpu.dcache.WriteReq_hits::total       10600371                       # number of WriteReq hits
system.cpu.dcache.WriteReq_misses::.cpu.data       348711                       # number of WriteReq misses
system.cpu.dcache.WriteReq_misses::total       348711                       # number of WriteReq misses
system.cpu.dcache.WriteReq_miss_latency::.cpu.data  15753165000                       # number of WriteReq miss cycles
system.cpu.dcache.WriteReq_miss_latency::total  15753165000                       # number of WriteReq miss cycles
system.cpu.dcache.WriteReq_accesses::.cpu.data     10949082                       # number of WriteReq accesses(hits+misses)
system.cpu.dcache.WriteReq_accesses::total     10949082                       # number of WriteReq accesses(hits+misses)
system.cpu.dcache.WriteReq_miss_rate::.cpu.data     0.031848                       # miss rate for WriteReq accesses
system.cpu.dcache.WriteReq_miss_rate::total     0.031848                       # miss rate for WriteReq accesses
system.cpu.dcache.WriteReq_avg_miss_latency::.cpu.data 45175.417466                       # average WriteReq miss latency
system.cpu.dcache.WriteReq_avg_miss_latency::total 45175.417466                       # average WriteReq miss latency
system.cpu.dcache.WriteReq_mshr_hits::.cpu.data        61937                       # number of WriteReq MSHR hits
system.cpu.dcache.WriteReq_mshr_hits::total        61937                       # number of WriteReq MSHR hits
system.cpu.dcache.WriteReq_mshr_misses::.cpu.data       286774                       # number of WriteReq MSHR misses
system.cpu.dcache.WriteReq_mshr_misses::total       286774                       # number of WriteReq MSHR misses
system.cpu.dcache.WriteReq_mshr_miss_latency::.cpu.data  13869694000                       # number of WriteReq MSHR miss cycles
system.cpu.dcache.WriteReq_mshr_miss_latency::total  13869694000                       # number of WriteReq MSHR miss cycles
system.cpu.dcache.WriteReq_mshr_miss_rate::.cpu.data     0.026192                       # mshr miss rate for WriteReq accesses
system.cpu.dcache.WriteReq_mshr_miss_rate::total     0.026192                       # mshr miss rate for WriteReq accesses
system.cpu.dcache.WriteReq_avg_mshr_miss_latency::.cpu.data 48364.544903                       # average WriteReq mshr miss latency
system.cpu.dcache.WriteReq_avg_mshr_miss_latency::total 48364.544903                       # average WriteReq mshr miss latency
system.cpu.dcache.SoftPFReq_hits::.cpu.data          510                       # number of SoftPFReq hits
system.cpu.dcache.SoftPFReq_hits::total           510                       # number of SoftPFReq hits
system.cpu.dcache.SoftPFReq_misses::.cpu.data         7909                       # number of SoftPFReq misses
system.cpu.dcache.SoftPFReq_misses::total         7909                       # number of SoftPFReq misses
system.cpu.dcache.SoftPFReq_accesses::.cpu.data         8419                       # number of SoftPFReq accesses(hits+misses)
system.cpu.dcache.SoftPFReq_accesses::total         8419                       # number of SoftPFReq accesses(hits+misses)
system.cpu.dcache.SoftPFReq_miss_rate::.cpu.data     0.939423                       # miss rate for SoftPFReq accesses
system.cpu.dcache.SoftPFReq_miss_rate::total     0.939423                       # miss rate for SoftPFReq accesses
system.cpu.dcache.SoftPFReq_mshr_misses::.cpu.data         7905                       # number of SoftPFReq MSHR misses
system.cpu.dcache.SoftPFReq_mshr_misses::total         7905                       # number of SoftPFReq MSHR misses
system.cpu.dcache.SoftPFReq_mshr_miss_latency::.cpu.data    658106999                       # number of SoftPFReq MSHR miss cycles
system.cpu.dcache.SoftPFReq_mshr_miss_latency::total    658106999                       # number of SoftPFReq MSHR miss cycles
system.cpu.dcache.SoftPFReq_mshr_miss_rate::.cpu.data     0.938948                       # mshr miss rate for SoftPFReq accesses
system.cpu.dcache.SoftPFReq_mshr_miss_rate::total     0.938948                       # mshr miss rate for SoftPFReq accesses
system.cpu.dcache.SoftPFReq_avg_mshr_miss_latency::.cpu.data 83251.992283                       # average SoftPFReq mshr miss latency
system.cpu.dcache.SoftPFReq_avg_mshr_miss_latency::total 83251.992283                       # average SoftPFReq mshr miss latency
system.cpu.dcache.LoadLockedReq_hits::.cpu.data           38                       # number of LoadLockedReq hits
system.cpu.dcache.LoadLockedReq_hits::total           38                       # number of LoadLockedReq hits
system.cpu.dcache.LoadLockedReq_accesses::.cpu.data           38                       # number of LoadLockedReq accesses(hits+misses)
system.cpu.dcache.LoadLockedReq_accesses::total           38                       # number of LoadLockedReq accesses(hits+misses)
system.cpu.dcache.StoreCondReq_hits::.cpu.data           38                       # number of StoreCondReq hits
system.cpu.dcache.StoreCondReq_hits::total           38                       # number of StoreCondReq hits
system.cpu.dcache.StoreCondReq_accesses::.cpu.data           38                       # number of StoreCondReq accesses(hits+misses)
system.cpu.dcache.StoreCondReq_accesses::total           38                       # number of StoreCondReq accesses(hits+misses)
system.cpu.dcache.power_state.pwrStateResidencyTicks::UNDEFINED  83616388000                       # Cumulative time (in ticks) in various power states
system.cpu.dcache.tags.tagsinuse          1007.815709                       # Cycle average of tags in use
system.cpu.dcache.tags.total_refs            52010388                       # Total number of references to valid blocks.
system.cpu.dcache.tags.sampled_refs            682786                       # Sample count of references to valid blocks.
system.cpu.dcache.tags.avg_refs             76.173776                       # Average number of references to valid blocks.
system.cpu.dcache.tags.warmup_cycle            176500                       # Cycle when the warmup percentage was hit.
system.cpu.dcache.tags.occ_blocks::.cpu.data  1007.815709                       # Average occupied blocks per requestor
system.cpu.dcache.tags.occ_percent::.cpu.data     0.984195                       # Average percentage of cache occupancy
system.cpu.dcache.tags.occ_percent::total     0.984195                       # Average percentage of cache occupancy
system.cpu.dcache.tags.occ_task_id_blocks::1024         1024                       # Occupied blocks per task id
system.cpu.dcache.tags.age_task_id_blocks_1024::0           95                       # Occupied blocks per task id
system.cpu.dcache.tags.age_task_id_blocks_1024::1          502                       # Occupied blocks per task id
system.cpu.dcache.tags.age_task_id_blocks_1024::2          424                       # Occupied blocks per task id
system.cpu.dcache.tags.age_task_id_blocks_1024::3            3                       # Occupied blocks per task id
system.cpu.dcache.tags.occ_task_id_percent::1024            1                       # Percentage of cache occupancy per task id
system.cpu.dcache.tags.tag_accesses         104828052                       # Number of tag accesses
system.cpu.dcache.tags.data_accesses        104828052                       # Number of data accesses
system.cpu.dcache.tags.power_state.pwrStateResidencyTicks::UNDEFINED  83616388000                       # Cumulative time (in ticks) in various power states
system.cpu.dtb.instHits                             0                       # ITB inst hits
system.cpu.dtb.instMisses                           0                       # ITB inst misses
system.cpu.dtb.readHits                             0                       # DTB read hits
system.cpu.dtb.readMisses                           0                       # DTB read misses
system.cpu.dtb.writeHits                            0                       # DTB write hits
system.cpu.dtb.writeMisses                          0                       # DTB write misses
system.cpu.dtb.inserts                              0                       # Number of times an entry is inserted into the TLB
system.cpu.dtb.flushTlb                             0                       # Number of times complete TLB was flushed
system.cpu.dtb.flushTlbMva                          0                       # Number of times TLB was flushed by MVA
system.cpu.dtb.flushTlbMvaAsid                      0                       # Number of times TLB was flushed by MVA & ASID
system.cpu.dtb.flushTlbAsid                         0                       # Number of times TLB was flushed by ASID
system.cpu.dtb.flushedEntries                       0                       # Number of entries that have been flushed from TLB
system.cpu.dtb.alignFaults                          0                       # Number of TLB faults due to alignment restrictions
system.cpu.dtb.prefetchFaults                       0                       # Number of TLB faults due to prefetch
system.cpu.dtb.domainFaults                         0                       # Number of TLB faults due to domain restrictions
system.cpu.dtb.permsFaults                          0                       # Number of TLB faults due to permissions restrictions
system.cpu.dtb.readAccesses                         0                       # DTB read accesses
system.cpu.dtb.writeAccesses                        0                       # DTB write accesses
system.cpu.dtb.instAccesses                         0                       # ITB inst accesses
system.cpu.dtb.hits                                 0                       # Total TLB (inst and data) hits
system.cpu.dtb.misses                               0                       # Total TLB (inst and data) misses
system.cpu.dtb.accesses                             0                       # Total TLB (inst and data) accesses
system.cpu.dtb.stage2_mmu.stage2_tlb.instHits            0                       # ITB inst hits
system.cpu.dtb.stage2_mmu.stage2_tlb.instMisses            0                       # ITB inst misses
system.cpu.dtb.stage2_mmu.stage2_tlb.readHits            0                       # DTB read hits
system.cpu.dtb.stage2_mmu.stage2_tlb.readMisses            0                       # DTB read misses
system.cpu.dtb.stage2_mmu.stage2_tlb.writeHits            0                       # DTB write hits
system.cpu.dtb.stage2_mmu.stage2_tlb.writeMisses            0                       # DTB write misses
system.cpu.dtb.stage2_mmu.stage2_tlb.inserts            0                       # Number of times an entry is inserted into the TLB
system.cpu.dtb.stage2_mmu.stage2_tlb.flushTlb            0                       # Number of times complete TLB was flushed
system.cpu.dtb.stage2_mmu.stage2_tlb.flushTlbMva            0                       # Number of times TLB was flushed by MVA
system.cpu.dtb.stage2_mmu.stage2_tlb.flushTlbMvaAsid            0                       # Number of times TLB was flushed by MVA & ASID
system.cpu.dtb.stage2_mmu.stage2_tlb.flushTlbAsid            0                       # Number of times TLB was flushed by ASID
system.cpu.dtb.stage2_mmu.stage2_tlb.flushedEntries            0                       # Number of entries that have been flushed from TLB
system.cpu.dtb.stage2_mmu.stage2_tlb.alignFaults            0                       # Number of TLB faults due to alignment restrictions
system.cpu.dtb.stage2_mmu.stage2_tlb.prefetchFaults            0                       # Number of TLB faults due to prefetch
system.cpu.dtb.stage2_mmu.stage2_tlb.domainFaults            0                       # Number of TLB faults due to domain restrictions
system.cpu.dtb.stage2_mmu.stage2_tlb.permsFaults            0                       # Number of TLB faults due to permissions restrictions
system.cpu.dtb.stage2_mmu.stage2_tlb.readAccesses            0                       # DTB read accesses
system.cpu.dtb.stage2_mmu.stage2_tlb.writeAccesses            0                       # DTB write accesses
system.cpu.dtb.stage2_mmu.stage2_tlb.instAccesses            0                       # ITB inst accesses
system.cpu.dtb.stage2_mmu.stage2_tlb.hits            0                       # Total TLB (inst and data) hits
system.cpu.dtb.stage2_mmu.stage2_tlb.misses            0                       # Total TLB (inst and data) misses
system.cpu.dtb.stage2_mmu.stage2_tlb.accesses            0                       # Total TLB (inst and data) accesses
system.cpu.dtb.stage2_mmu.stage2_tlb.walker.walks            0                       # Table walker walks requested
system.cpu.dtb.stage2_mmu.stage2_tlb.walker.requestOrigin_Requested::Data            0                       # Table walker requests started/completed, data/inst
system.cpu.dtb.stage2_mmu.stage2_tlb.walker.requestOrigin_Requested::Inst            0                       # Table walker requests started/completed, data/inst
system.cpu.dtb.stage2_mmu.stage2_tlb.walker.requestOrigin_Requested::total            0                       # Table walker requests started/completed, data/inst
system.cpu.dtb.stage2_mmu.stage2_tlb.walker.requestOrigin_Completed::Data            0                       # Table walker requests started/completed, data/inst
system.cpu.dtb.stage2_mmu.stage2_tlb.walker.requestOrigin_Completed::Inst            0                       # Table walker requests started/completed, data/inst
system.cpu.dtb.stage2_mmu.stage2_tlb.walker.requestOrigin_Completed::total            0                       # Table walker requests started/completed, data/inst
system.cpu.dtb.stage2_mmu.stage2_tlb.walker.requestOrigin::total            0                       # Table walker requests started/completed, data/inst
system.cpu.dtb.stage2_mmu.stage2_tlb.walker.power_state.pwrStateResidencyTicks::UNDEFINED  83616388000                       # Cumulative time (in ticks) in various power states
system.cpu.dtb.walker.walks                         0                       # Table walker walks requested
system.cpu.dtb.walker.requestOrigin_Requested::Data            0                       # Table walker requests started/completed, data/inst
system.cpu.dtb.walker.requestOrigin_Requested::Inst            0                       # Table walker requests started/completed, data/inst
system.cpu.dtb.walker.requestOrigin_Requested::total            0                       # Table walker requests started/completed, data/inst
system.cpu.dtb.walker.requestOrigin_Completed::Data            0                       # Table walker requests started/completed, data/inst
system.cpu.dtb.walker.requestOrigin_Completed::Inst            0                       # Table walker requests started/completed, data/inst
system.cpu.dtb.walker.requestOrigin_Completed::total            0                       # Table walker requests started/completed, data/inst
system.cpu.dtb.walker.requestOrigin::total            0                       # Table walker requests started/completed, data/inst
system.cpu.dtb.walker.power_state.pwrStateResidencyTicks::UNDEFINED  83616388000                       # Cumulative time (in ticks) in various power states
system.cpu.fetch2.intInstructions            42685812                       # Number of integer instructions successfully decoded
system.cpu.fetch2.fpInstructions                    0                       # Number of floating point instructions successfully decoded
system.cpu.fetch2.vecInstructions                   0                       # Number of SIMD instructions successfully decoded
system.cpu.fetch2.loadInstructions           43474996                       # Number of memory load instructions successfully decoded
system.cpu.fetch2.storeInstructions          11024882                       # Number of memory store instructions successfully decoded
system.cpu.fetch2.amoInstructions                   0                       # Number of memory atomic instructions successfully decoded
system.cpu.icache.demand_hits::.cpu.inst     10277913                       # number of demand (read+write) hits
system.cpu.icache.demand_hits::total         10277913                       # number of demand (read+write) hits
system.cpu.icache.overall_hits::.cpu.inst     10277913                       # number of overall hits
system.cpu.icache.overall_hits::total        10277913                       # number of overall hits
system.cpu.icache.demand_misses::.cpu.inst          773                       # number of demand (read+write) misses
system.cpu.icache.demand_misses::total            773                       # number of demand (read+write) misses
system.cpu.icache.overall_misses::.cpu.inst          773                       # number of overall misses
system.cpu.icache.overall_misses::total           773                       # number of overall misses
system.cpu.icache.demand_miss_latency::.cpu.inst     56848500                       # number of demand (read+write) miss cycles
system.cpu.icache.demand_miss_latency::total     56848500                       # number of demand (read+write) miss cycles
system.cpu.icache.overall_miss_latency::.cpu.inst     56848500                       # number of overall miss cycles
system.cpu.icache.overall_miss_latency::total     56848500                       # number of overall miss cycles
system.cpu.icache.demand_accesses::.cpu.inst     10278686                       # number of demand (read+write) accesses
system.cpu.icache.demand_accesses::total     10278686                       # number of demand (read+write) accesses
system.cpu.icache.overall_accesses::.cpu.inst     10278686                       # number of overall (read+write) accesses
system.cpu.icache.overall_accesses::total     10278686                       # number of overall (read+write) accesses
system.cpu.icache.demand_miss_rate::.cpu.inst     0.000075                       # miss rate for demand accesses
system.cpu.icache.demand_miss_rate::total     0.000075                       # miss rate for demand accesses
system.cpu.icache.overall_miss_rate::.cpu.inst     0.000075                       # miss rate for overall accesses
system.cpu.icache.overall_miss_rate::total     0.000075                       # miss rate for overall accesses
system.cpu.icache.demand_avg_miss_latency::.cpu.inst 73542.690815                       # average overall miss latency
system.cpu.icache.demand_avg_miss_latency::total 73542.690815                       # average overall miss latency
system.cpu.icache.overall_avg_miss_latency::.cpu.inst 73542.690815                       # average overall miss latency
system.cpu.icache.overall_avg_miss_latency::total 73542.690815                       # average overall miss latency
system.cpu.icache.blocked_cycles::no_mshrs            0                       # number of cycles access was blocked
system.cpu.icache.blocked_cycles::no_targets            0                       # number of cycles access was blocked
system.cpu.icache.blocked::no_mshrs                 0                       # number of cycles access was blocked
system.cpu.icache.blocked::no_targets               0                       # number of cycles access was blocked
system.cpu.icache.avg_blocked_cycles::no_mshrs          nan                       # average number of cycles each access was blocked
system.cpu.icache.avg_blocked_cycles::no_targets          nan                       # average number of cycles each access was blocked
system.cpu.icache.writebacks::.writebacks          333                       # number of writebacks
system.cpu.icache.writebacks::total               333                       # number of writebacks
system.cpu.icache.demand_mshr_misses::.cpu.inst          773                       # number of demand (read+write) MSHR misses
system.cpu.icache.demand_mshr_misses::total          773                       # number of demand (read+write) MSHR misses
system.cpu.icache.overall_mshr_misses::.cpu.inst          773                       # number of overall MSHR misses
system.cpu.icache.overall_mshr_misses::total          773                       # number of overall MSHR misses
system.cpu.icache.demand_mshr_miss_latency::.cpu.inst     56075500                       # number of demand (read+write) MSHR miss cycles
system.cpu.icache.demand_mshr_miss_latency::total     56075500                       # number of demand (read+write) MSHR miss cycles
system.cpu.icache.overall_mshr_miss_latency::.cpu.inst     56075500                       # number of overall MSHR miss cycles
system.cpu.icache.overall_mshr_miss_latency::total     56075500                       # number of overall MSHR miss cycles
system.cpu.icache.demand_mshr_miss_rate::.cpu.inst     0.000075                       # mshr miss rate for demand accesses
system.cpu.icache.demand_mshr_miss_rate::total     0.000075                       # mshr miss rate for demand accesses
system.cpu.icache.overall_mshr_miss_rate::.cpu.inst     0.000075                       # mshr miss rate for overall accesses
system.cpu.icache.overall_mshr_miss_rate::total     0.000075                       # mshr miss rate for overall accesses
system.cpu.icache.demand_avg_mshr_miss_latency::.cpu.inst 72542.690815                       # average overall mshr miss latency
system.cpu.icache.demand_avg_mshr_miss_latency::total 72542.690815                       # average overall mshr miss latency
system.cpu.icache.overall_avg_mshr_miss_latency::.cpu.inst 72542.690815                       # average overall mshr miss latency
system.cpu.icache.overall_avg_mshr_miss_latency::total 72542.690815                       # average overall mshr miss latency
system.cpu.icache.replacements                    333                       # number of replacements
system.cpu.icache.ReadReq_hits::.cpu.inst     10277913                       # number of ReadReq hits
system.cpu.icache.ReadReq_hits::total        10277913                       # number of ReadReq hits
system.cpu.icache.ReadReq_misses::.cpu.inst          773                       # number of ReadReq misses
system.cpu.icache.ReadReq_misses::total           773                       # number of ReadReq misses
system.cpu.icache.ReadReq_miss_latency::.cpu.inst     56848500                       # number of ReadReq miss cycles
system.cpu.icache.ReadReq_miss_latency::total     56848500                       # number of ReadReq miss cycles
system.cpu.icache.ReadReq_accesses::.cpu.inst     10278686                       # number of ReadReq accesses(hits+misses)
system.cpu.icache.ReadReq_accesses::total     10278686                       # number of ReadReq accesses(hits+misses)
system.cpu.icache.ReadReq_miss_rate::.cpu.inst     0.000075                       # miss rate for ReadReq accesses
system.cpu.icache.ReadReq_miss_rate::total     0.000075                       # miss rate for ReadReq accesses
system.cpu.icache.ReadReq_avg_miss_latency::.cpu.inst 73542.690815                       # average ReadReq miss latency
system.cpu.icache.ReadReq_avg_miss_latency::total 73542.690815                       # average ReadReq miss latency
system.cpu.icache.ReadReq_mshr_misses::.cpu.inst          773                       # number of ReadReq MSHR misses
system.cpu.icache.ReadReq_mshr_misses::total          773                       # number of ReadReq MSHR misses
system.cpu.icache.ReadReq_mshr_miss_latency::.cpu.inst     56075500                       # number of ReadReq MSHR miss cycles
system.cpu.icache.ReadReq_mshr_miss_latency::total     56075500                       # number of ReadReq MSHR miss cycles
system.cpu.icache.ReadReq_mshr_miss_rate::.cpu.inst     0.000075                       # mshr miss rate for ReadReq accesses
system.cpu.icache.ReadReq_mshr_miss_rate::total     0.000075                       # mshr miss rate for ReadReq accesses
system.cpu.icache.ReadReq_avg_mshr_miss_latency::.cpu.inst 72542.690815                       # average ReadReq mshr miss latency
system.cpu.icache.ReadReq_avg_mshr_miss_latency::total 72542.690815                       # average ReadReq mshr miss latency
system.cpu.icache.power_state.pwrStateResidencyTicks::UNDEFINED  83616388000                       # Cumulative time (in ticks) in various power states
system.cpu.icache.tags.tagsinuse           355.683248                       # Cycle average of tags in use
system.cpu.icache.tags.total_refs            10278686                       # Total number of references to valid blocks.
system.cpu.icache.tags.sampled_refs               773                       # Sample count of references to valid blocks.
system.cpu.icache.tags.avg_refs          13297.135834                       # Average number of references to valid blocks.
system.cpu.icache.tags.warmup_cycle             87500                       # Cycle when the warmup percentage was hit.
system.cpu.icache.tags.occ_blocks::.cpu.inst   355.683248                       # Average occupied blocks per requestor
system.cpu.icache.tags.occ_percent::.cpu.inst     0.694694                       # Average percentage of cache occupancy
system.cpu.icache.tags.occ_percent::total     0.694694                       # Average percentage of cache occupancy
system.cpu.icache.tags.occ_task_id_blocks::1024          440                       # Occupied blocks per task id
system.cpu.icache.tags.age_task_id_blocks_1024::3          107                       # Occupied blocks per task id
system.cpu.icache.tags.age_task_id_blocks_1024::4          333                       # Occupied blocks per task id
system.cpu.icache.tags.occ_task_id_percent::1024     0.859375                       # Percentage of cache occupancy per task id
system.cpu.icache.tags.tag_accesses          20558145                       # Number of tag accesses
system.cpu.icache.tags.data_accesses         20558145                       # Number of data accesses
system.cpu.icache.tags.power_state.pwrStateResidencyTicks::UNDEFINED  83616388000                       # Cumulative time (in ticks) in various power states
system.cpu.itb.instHits                             0                       # ITB inst hits
system.cpu.itb.instMisses                           0                       # ITB inst misses
system.cpu.itb.readHits                             0                       # DTB read hits
system.cpu.itb.readMisses                           0                       # DTB read misses
system.cpu.itb.writeHits                            0                       # DTB write hits
system.cpu.itb.writeMisses                          0                       # DTB write misses
system.cpu.itb.inserts                              0                       # Number of times an entry is inserted into the TLB
system.cpu.itb.flushTlb                             0                       # Number of times complete TLB was flushed
system.cpu.itb.flushTlbMva                          0                       # Number of times TLB was flushed by MVA
system.cpu.itb.flushTlbMvaAsid                      0                       # Number of times TLB was flushed by MVA & ASID
system.cpu.itb.flushTlbAsid                         0                       # Number of times TLB was flushed by ASID
system.cpu.itb.flushedEntries                       0                       # Number of entries that have been flushed from TLB
system.cpu.itb.alignFaults                          0                       # Number of TLB faults due to alignment restrictions
system.cpu.itb.prefetchFaults                       0                       # Number of TLB faults due to prefetch
system.cpu.itb.domainFaults                         0                       # Number of TLB faults due to domain restrictions
system.cpu.itb.permsFaults                          0                       # Number of TLB faults due to permissions restrictions
system.cpu.itb.readAccesses                         0                       # DTB read accesses
system.cpu.itb.writeAccesses                        0                       # DTB write accesses
system.cpu.itb.instAccesses                         0                       # ITB inst accesses
system.cpu.itb.hits                                 0                       # Total TLB (inst and data) hits
system.cpu.itb.misses                               0                       # Total TLB (inst and data) misses
system.cpu.itb.accesses                             0                       # Total TLB (inst and data) accesses
system.cpu.itb.stage2_mmu.stage2_tlb.instHits            0                       # ITB inst hits
system.cpu.itb.stage2_mmu.stage2_tlb.instMisses            0                       # ITB inst misses
system.cpu.itb.stage2_mmu.stage2_tlb.readHits            0                       # DTB read hits
system.cpu.itb.stage2_mmu.stage2_tlb.readMisses            0                       # DTB read misses
system.cpu.itb.stage2_mmu.stage2_tlb.writeHits            0                       # DTB write hits
system.cpu.itb.stage2_mmu.stage2_tlb.writeMisses            0                       # DTB write misses
system.cpu.itb.stage2_mmu.stage2_tlb.inserts            0                       # Number of times an entry is inserted into the TLB
system.cpu.itb.stage2_mmu.stage2_tlb.flushTlb            0                       # Number of times complete TLB was flushed
system.cpu.itb.stage2_mmu.stage2_tlb.flushTlbMva            0                       # Number of times TLB was flushed by MVA
system.cpu.itb.stage2_mmu.stage2_tlb.flushTlbMvaAsid            0                       # Number of times TLB was flushed by MVA & ASID
system.cpu.itb.stage2_mmu.stage2_tlb.flushTlbAsid            0                       # Number of times TLB was flushed by ASID
system.cpu.itb.stage2_mmu.stage2_tlb.flushedEntries            0                       # Number of entries that have been flushed from TLB
system.cpu.itb.stage2_mmu.stage2_tlb.alignFaults            0                       # Number of TLB faults due to alignment restrictions
system.cpu.itb.stage2_mmu.stage2_tlb.prefetchFaults            0                       # Number of TLB faults due to prefetch
system.cpu.itb.stage2_mmu.stage2_tlb.domainFaults            0                       # Number of TLB faults due to domain restrictions
system.cpu.itb.stage2_mmu.stage2_tlb.permsFaults            0                       # Number of TLB faults due to permissions restrictions
system.cpu.itb.stage2_mmu.stage2_tlb.readAccesses            0                       # DTB read accesses
system.cpu.itb.stage2_mmu.stage2_tlb.writeAccesses            0                       # DTB write accesses
system.cpu.itb.stage2_mmu.stage2_tlb.instAccesses            0                       # ITB inst accesses
system.cpu.itb.stage2_mmu.stage2_tlb.hits            0                       # Total TLB (inst and data) hits
system.cpu.itb.stage2_mmu.stage2_tlb.misses            0                       # Total TLB (inst and data) misses
system.cpu.itb.stage2_mmu.stage2_tlb.accesses            0                       # Total TLB (inst and data) accesses
system.cpu.itb.stage2_mmu.stage2_tlb.walker.walks            0                       # Table walker walks requested
system.cpu.itb.stage2_mmu.stage2_tlb.walker.requestOrigin_Requested::Data            0                       # Table walker requests started/completed, data/inst
system.cpu.itb.stage2_mmu.stage2_tlb.walker.requestOrigin_Requested::Inst            0                       # Table walker requests started/completed, data/inst
system.cpu.itb.stage2_mmu.stage2_tlb.walker.requestOrigin_Requested::total            0                       # Table walker requests started/completed, data/inst
system.cpu.itb.stage2_mmu.stage2_tlb.walker.requestOrigin_Completed::Data            0                       # Table walker requests started/completed, data/inst
system.cpu.itb.stage2_mmu.stage2_tlb.walker.requestOrigin_Completed::Inst            0                       # Table walker requests started/completed, data/inst
system.cpu.itb.stage2_mmu.stage2_tlb.walker.requestOrigin_Completed::total            0                       # Table walker requests started/completed, data/inst
system.cpu.itb.stage2_mmu.stage2_tlb.walker.requestOrigin::total            0                       # Table walker requests started/completed, data/inst
system.cpu.itb.stage2_mmu.stage2_tlb.walker.power_state.pwrStateResidencyTicks::UNDEFINED  83616388000                       # Cumulative time (in ticks) in various power states
system.cpu.itb.walker.walks                         0                       # Table walker walks requested
system.cpu.itb.walker.requestOrigin_Requested::Data            0                       # Table walker requests started/completed, data/inst
system.cpu.itb.walker.requestOrigin_Requested::Inst            0                       # Table walker requests started/completed, data/inst
system.cpu.itb.walker.requestOrigin_Requested::total            0                       # Table walker requests started/completed, data/inst
system.cpu.itb.walker.requestOrigin_Completed::Data            0                       # Table walker requests started/completed, data/inst
system.cpu.itb.walker.requestOrigin_Completed::Inst            0                       # Table walker requests started/completed, data/inst
system.cpu.itb.walker.requestOrigin_Completed::total            0                       # Table walker requests started/completed, data/inst
system.cpu.itb.walker.requestOrigin::total            0                       # Table walker requests started/completed, data/inst
system.cpu.itb.walker.power_state.pwrStateResidencyTicks::UNDEFINED  83616388000                       # Cumulative time (in ticks) in various power states
system.cpu.power_state.pwrStateResidencyTicks::ON  83616388000                       # Cumulative time (in ticks) in various power states
system.cpu.thread0.numInsts                 100000001                       # Number of Instructions committed
system.cpu.thread0.numOps                   100196356                       # Number of Ops committed
system.cpu.thread0.numMemRefs                       0                       # Number of Memory References
system.cpu_clk_domain.clock                       500                       # Clock period in ticks
system.cpu_voltage_domain.voltage                   1                       # Voltage in Volts
system.l2.demand_hits::.cpu.inst                  101                       # number of demand (read+write) hits
system.l2.demand_hits::.cpu.data               481585                       # number of demand (read+write) hits
system.l2.demand_hits::total                   481686                       # number of demand (read+write) hits
system.l2.overall_hits::.cpu.inst                 101                       # number of overall hits
system.l2.overall_hits::.cpu.data              481585                       # number of overall hits
system.l2.overall_hits::total                  481686                       # number of overall hits
system.l2.demand_misses::.cpu.inst                672                       # number of demand (read+write) misses
system.l2.demand_misses::.cpu.data             201201                       # number of demand (read+write) misses
system.l2.demand_misses::total                 201873                       # number of demand (read+write) misses
system.l2.overall_misses::.cpu.inst               672                       # number of overall misses
system.l2.overall_misses::.cpu.data            201201                       # number of overall misses
system.l2.overall_misses::total                201873                       # number of overall misses
system.l2.demand_miss_latency::.cpu.inst     53837000                       # number of demand (read+write) miss cycles
system.l2.demand_miss_latency::.cpu.data  16967956000                       # number of demand (read+write) miss cycles
system.l2.demand_miss_latency::total      17021793000                       # number of demand (read+write) miss cycles
system.l2.overall_miss_latency::.cpu.inst     53837000                       # number of overall miss cycles
system.l2.overall_miss_latency::.cpu.data  16967956000                       # number of overall miss cycles
system.l2.overall_miss_latency::total     17021793000                       # number of overall miss cycles
system.l2.demand_accesses::.cpu.inst              773                       # number of demand (read+write) accesses
system.l2.demand_accesses::.cpu.data           682786                       # number of demand (read+write) accesses
system.l2.demand_accesses::total               683559                       # number of demand (read+write) accesses
system.l2.overall_accesses::.cpu.inst             773                       # number of overall (read+write) accesses
system.l2.overall_accesses::.cpu.data          682786                       # number of overall (read+write) accesses
system.l2.overall_accesses::total              683559                       # number of overall (read+write) accesses
system.l2.demand_miss_rate::.cpu.inst        0.869340                       # miss rate for demand accesses
system.l2.demand_miss_rate::.cpu.data        0.294677                       # miss rate for demand accesses
system.l2.demand_miss_rate::total            0.295326                       # miss rate for demand accesses
system.l2.overall_miss_rate::.cpu.inst       0.869340                       # miss rate for overall accesses
system.l2.overall_miss_rate::.cpu.data       0.294677                       # miss rate for overall accesses
system.l2.overall_miss_rate::total           0.295326                       # miss rate for overall accesses
system.l2.demand_avg_miss_latency::.cpu.inst 80114.583333                       # average overall miss latency
system.l2.demand_avg_miss_latency::.cpu.data 84333.358184                       # average overall miss latency
system.l2.demand_avg_miss_latency::total 84319.314619                       # average overall miss latency
system.l2.overall_avg_miss_latency::.cpu.inst 80114.583333                       # average overall miss latency
system.l2.overall_avg_miss_latency::.cpu.data 84333.358184                       # average overall miss latency
system.l2.overall_avg_miss_latency::total 84319.314619                       # average overall miss latency
system.l2.blocked_cycles::no_mshrs                  0                       # number of cycles access was blocked
system.l2.blocked_cycles::no_targets                0                       # number of cycles access was blocked
system.l2.blocked::no_mshrs                         0                       # number of cycles access was blocked
system.l2.blocked::no_targets                       0                       # number of cycles access was blocked
system.l2.avg_blocked_cycles::no_mshrs            nan                       # average number of cycles each access was blocked
system.l2.avg_blocked_cycles::no_targets          nan                       # average number of cycles each access was blocked
system.l2.writebacks::.writebacks              111501                       # number of writebacks
system.l2.writebacks::total                    111501                       # number of writebacks
system.l2.demand_mshr_hits::.cpu.data               6                       # number of demand (read+write) MSHR hits
system.l2.demand_mshr_hits::total                   6                       # number of demand (read+write) MSHR hits
system.l2.overall_mshr_hits::.cpu.data              6                       # number of overall MSHR hits
system.l2.overall_mshr_hits::total                  6                       # number of overall MSHR hits
system.l2.demand_mshr_misses::.cpu.inst           672                       # number of demand (read+write) MSHR misses
system.l2.demand_mshr_misses::.cpu.data        201195                       # number of demand (read+write) MSHR misses
system.l2.demand_mshr_misses::total            201867                       # number of demand (read+write) MSHR misses
system.l2.overall_mshr_misses::.cpu.inst          672                       # number of overall MSHR misses
system.l2.overall_mshr_misses::.cpu.data       201195                       # number of overall MSHR misses
system.l2.overall_mshr_misses::total           201867                       # number of overall MSHR misses
system.l2.demand_mshr_miss_latency::.cpu.inst     47117000                       # number of demand (read+write) MSHR miss cycles
system.l2.demand_mshr_miss_latency::.cpu.data  14955605500                       # number of demand (read+write) MSHR miss cycles
system.l2.demand_mshr_miss_latency::total  15002722500                       # number of demand (read+write) MSHR miss cycles
system.l2.overall_mshr_miss_latency::.cpu.inst     47117000                       # number of overall MSHR miss cycles
system.l2.overall_mshr_miss_latency::.cpu.data  14955605500                       # number of overall MSHR miss cycles
system.l2.overall_mshr_miss_latency::total  15002722500                       # number of overall MSHR miss cycles
system.l2.demand_mshr_miss_rate::.cpu.inst     0.869340                       # mshr miss rate for demand accesses
system.l2.demand_mshr_miss_rate::.cpu.data     0.294668                       # mshr miss rate for demand accesses
system.l2.demand_mshr_miss_rate::total       0.295318                       # mshr miss rate for demand accesses
system.l2.overall_mshr_miss_rate::.cpu.inst     0.869340                       # mshr miss rate for overall accesses
system.l2.overall_mshr_miss_rate::.cpu.data     0.294668                       # mshr miss rate for overall accesses
system.l2.overall_mshr_miss_rate::total      0.295318                       # mshr miss rate for overall accesses
system.l2.demand_avg_mshr_miss_latency::.cpu.inst 70114.583333                       # average overall mshr miss latency
system.l2.demand_avg_mshr_miss_latency::.cpu.data 74333.882552                       # average overall mshr miss latency
system.l2.demand_avg_mshr_miss_latency::total 74319.836823                       # average overall mshr miss latency
system.l2.overall_avg_mshr_miss_latency::.cpu.inst 70114.583333                       # average overall mshr miss latency
system.l2.overall_avg_mshr_miss_latency::.cpu.data 74333.882552                       # average overall mshr miss latency
system.l2.overall_avg_mshr_miss_latency::total 74319.836823                       # average overall mshr miss latency
system.l2.replacements                         169236                       # number of replacements
system.l2.WritebackDirty_hits::.writebacks       608048                       # number of WritebackDirty hits
system.l2.WritebackDirty_hits::total           608048                       # number of WritebackDirty hits
system.l2.WritebackDirty_accesses::.writebacks       608048                       # number of WritebackDirty accesses(hits+misses)
system.l2.WritebackDirty_accesses::total       608048                       # number of WritebackDirty accesses(hits+misses)
system.l2.WritebackClean_hits::.writebacks          324                       # number of WritebackClean hits
system.l2.WritebackClean_hits::total              324                       # number of WritebackClean hits
system.l2.WritebackClean_accesses::.writebacks          324                       # number of WritebackClean accesses(hits+misses)
system.l2.WritebackClean_accesses::total          324                       # number of WritebackClean accesses(hits+misses)
system.l2.ReadExReq_hits::.cpu.data            150151                       # number of ReadExReq hits
system.l2.ReadExReq_hits::total                150151                       # number of ReadExReq hits
system.l2.ReadExReq_misses::.cpu.data          136623                       # number of ReadExReq misses
system.l2.ReadExReq_misses::total              136623                       # number of ReadExReq misses
system.l2.ReadExReq_miss_latency::.cpu.data  11861162500                       # number of ReadExReq miss cycles
system.l2.ReadExReq_miss_latency::total   11861162500                       # number of ReadExReq miss cycles
system.l2.ReadExReq_accesses::.cpu.data        286774                       # number of ReadExReq accesses(hits+misses)
system.l2.ReadExReq_accesses::total            286774                       # number of ReadExReq accesses(hits+misses)
system.l2.ReadExReq_miss_rate::.cpu.data     0.476413                       # miss rate for ReadExReq accesses
system.l2.ReadExReq_miss_rate::total         0.476413                       # miss rate for ReadExReq accesses
system.l2.ReadExReq_avg_miss_latency::.cpu.data 86816.732907                       # average ReadExReq miss latency
system.l2.ReadExReq_avg_miss_latency::total 86816.732907                       # average ReadExReq miss latency
system.l2.ReadExReq_mshr_misses::.cpu.data       136623                       # number of ReadExReq MSHR misses
system.l2.ReadExReq_mshr_misses::total         136623                       # number of ReadExReq MSHR misses
system.l2.ReadExReq_mshr_miss_latency::.cpu.data  10494932500                       # number of ReadExReq MSHR miss cycles
system.l2.ReadExReq_mshr_miss_latency::total  10494932500                       # number of ReadExReq MSHR miss cycles
system.l2.ReadExReq_mshr_miss_rate::.cpu.data     0.476413                       # mshr miss rate for ReadExReq accesses
system.l2.ReadExReq_mshr_miss_rate::total     0.476413                       # mshr miss rate for ReadExReq accesses
system.l2.ReadExReq_avg_mshr_miss_latency::.cpu.data 76816.732907                       # average ReadExReq mshr miss latency
system.l2.ReadExReq_avg_mshr_miss_latency::total 76816.732907                       # average ReadExReq mshr miss latency
system.l2.ReadCleanReq_hits::.cpu.inst            101                       # number of ReadCleanReq hits
system.l2.ReadCleanReq_hits::total                101                       # number of ReadCleanReq hits
system.l2.ReadCleanReq_misses::.cpu.inst          672                       # number of ReadCleanReq misses
system.l2.ReadCleanReq_misses::total              672                       # number of ReadCleanReq misses
system.l2.ReadCleanReq_miss_latency::.cpu.inst     53837000                       # number of ReadCleanReq miss cycles
system.l2.ReadCleanReq_miss_latency::total     53837000                       # number of ReadCleanReq miss cycles
system.l2.ReadCleanReq_accesses::.cpu.inst          773                       # number of ReadCleanReq accesses(hits+misses)
system.l2.ReadCleanReq_accesses::total            773                       # number of ReadCleanReq accesses(hits+misses)
system.l2.ReadCleanReq_miss_rate::.cpu.inst     0.869340                       # miss rate for ReadCleanReq accesses
system.l2.ReadCleanReq_miss_rate::total      0.869340                       # miss rate for ReadCleanReq accesses
system.l2.ReadCleanReq_avg_miss_latency::.cpu.inst 80114.583333                       # average ReadCleanReq miss latency
system.l2.ReadCleanReq_avg_miss_latency::total 80114.583333                       # average ReadCleanReq miss latency
system.l2.ReadCleanReq_mshr_misses::.cpu.inst          672                       # number of ReadCleanReq MSHR misses
system.l2.ReadCleanReq_mshr_misses::total          672                       # number of ReadCleanReq MSHR misses
system.l2.ReadCleanReq_mshr_miss_latency::.cpu.inst     47117000                       # number of ReadCleanReq MSHR miss cycles
system.l2.ReadCleanReq_mshr_miss_latency::total     47117000                       # number of ReadCleanReq MSHR miss cycles
system.l2.ReadCleanReq_mshr_miss_rate::.cpu.inst     0.869340                       # mshr miss rate for ReadCleanReq accesses
system.l2.ReadCleanReq_mshr_miss_rate::total     0.869340                       # mshr miss rate for ReadCleanReq accesses
system.l2.ReadCleanReq_avg_mshr_miss_latency::.cpu.inst 70114.583333                       # average ReadCleanReq mshr miss latency
system.l2.ReadCleanReq_avg_mshr_miss_latency::total 70114.583333                       # average ReadCleanReq mshr miss latency
system.l2.ReadSharedReq_hits::.cpu.data        331434                       # number of ReadSharedReq hits
system.l2.ReadSharedReq_hits::total            331434                       # number of ReadSharedReq hits
system.l2.ReadSharedReq_misses::.cpu.data        64578                       # number of ReadSharedReq misses
system.l2.ReadSharedReq_misses::total           64578                       # number of ReadSharedReq misses
system.l2.ReadSharedReq_miss_latency::.cpu.data   5106793500                       # number of ReadSharedReq miss cycles
system.l2.ReadSharedReq_miss_latency::total   5106793500                       # number of ReadSharedReq miss cycles
system.l2.ReadSharedReq_accesses::.cpu.data       396012                       # number of ReadSharedReq accesses(hits+misses)
system.l2.ReadSharedReq_accesses::total        396012                       # number of ReadSharedReq accesses(hits+misses)
system.l2.ReadSharedReq_miss_rate::.cpu.data     0.163071                       # miss rate for ReadSharedReq accesses
system.l2.ReadSharedReq_miss_rate::total     0.163071                       # miss rate for ReadSharedReq accesses
system.l2.ReadSharedReq_avg_miss_latency::.cpu.data 79079.462046                       # average ReadSharedReq miss latency
system.l2.ReadSharedReq_avg_miss_latency::total 79079.462046                       # average ReadSharedReq miss latency
system.l2.ReadSharedReq_mshr_hits::.cpu.data            6                       # number of ReadSharedReq MSHR hits
system.l2.ReadSharedReq_mshr_hits::total            6                       # number of ReadSharedReq MSHR hits
system.l2.ReadSharedReq_mshr_misses::.cpu.data        64572                       # number of ReadSharedReq MSHR misses
system.l2.ReadSharedReq_mshr_misses::total        64572                       # number of ReadSharedReq MSHR misses
system.l2.ReadSharedReq_mshr_miss_latency::.cpu.data   4460673000                       # number of ReadSharedReq MSHR miss cycles
system.l2.ReadSharedReq_mshr_miss_latency::total   4460673000                       # number of ReadSharedReq MSHR miss cycles
system.l2.ReadSharedReq_mshr_miss_rate::.cpu.data     0.163056                       # mshr miss rate for ReadSharedReq accesses
system.l2.ReadSharedReq_mshr_miss_rate::total     0.163056                       # mshr miss rate for ReadSharedReq accesses
system.l2.ReadSharedReq_avg_mshr_miss_latency::.cpu.data 69080.607694                       # average ReadSharedReq mshr miss latency
system.l2.ReadSharedReq_avg_mshr_miss_latency::total 69080.607694                       # average ReadSharedReq mshr miss latency
system.l2.power_state.pwrStateResidencyTicks::UNDEFINED  83616388000                       # Cumulative time (in ticks) in various power states
system.l2.tags.tagsinuse                 31891.551930                       # Cycle average of tags in use
system.l2.tags.total_refs                     1365573                       # Total number of references to valid blocks.
system.l2.tags.sampled_refs                    202004                       # Sample count of references to valid blocks.
system.l2.tags.avg_refs                      6.760129                       # Average number of references to valid blocks.
system.l2.tags.warmup_cycle                     77000                       # Cycle when the warmup percentage was hit.
system.l2.tags.occ_blocks::.writebacks      46.314954                       # Average occupied blocks per requestor
system.l2.tags.occ_blocks::.cpu.inst        79.293055                       # Average occupied blocks per requestor
system.l2.tags.occ_blocks::.cpu.data     31765.943921                       # Average occupied blocks per requestor
system.l2.tags.occ_percent::.writebacks      0.001413                       # Average percentage of cache occupancy
system.l2.tags.occ_percent::.cpu.inst        0.002420                       # Average percentage of cache occupancy
system.l2.tags.occ_percent::.cpu.data        0.969420                       # Average percentage of cache occupancy
system.l2.tags.occ_percent::total            0.973253                       # Average percentage of cache occupancy
system.l2.tags.occ_task_id_blocks::1024         32768                       # Occupied blocks per task id
system.l2.tags.age_task_id_blocks_1024::0            2                       # Occupied blocks per task id
system.l2.tags.age_task_id_blocks_1024::1          134                       # Occupied blocks per task id
system.l2.tags.age_task_id_blocks_1024::2         1218                       # Occupied blocks per task id
system.l2.tags.age_task_id_blocks_1024::3        14757                       # Occupied blocks per task id
system.l2.tags.age_task_id_blocks_1024::4        16657                       # Occupied blocks per task id
system.l2.tags.occ_task_id_percent::1024            1                       # Percentage of cache occupancy per task id
system.l2.tags.tag_accesses                   5664320                       # Number of tag accesses
system.l2.tags.data_accesses                  5664320                       # Number of data accesses
system.l2.tags.power_state.pwrStateResidencyTicks::UNDEFINED  83616388000                       # Cumulative time (in ticks) in various power states
system.mem_ctrls.avgPriority_.writebacks::samples    111501.00                       # Average QoS priority value for accepted requests
system.mem_ctrls.avgPriority_.cpu.inst::samples       672.00                       # Average QoS priority value for accepted requests
system.mem_ctrls.avgPriority_.cpu.data::samples    201142.00                       # Average QoS priority value for accepted requests
system.mem_ctrls.priorityMinLatency      0.000000018750                       # per QoS priority minimum request to response latency (s)
system.mem_ctrls.priorityMaxLatency      0.003617636500                       # per QoS priority maximum request to response latency (s)
system.mem_ctrls.numReadWriteTurnArounds         6662                       # Number of turnarounds from READ to WRITE
system.mem_ctrls.numWriteReadTurnArounds         6662                       # Number of turnarounds from WRITE to READ
system.mem_ctrls.numStayReadState              526544                       # Number of times bus staying in READ state
system.mem_ctrls.numStayWriteState             104955                       # Number of times bus staying in WRITE state
system.mem_ctrls.readReqs                      201867                       # Number of read requests accepted
system.mem_ctrls.writeReqs                     111501                       # Number of write requests accepted
system.mem_ctrls.readBursts                    201867                       # Number of controller read bursts, including those serviced by the write queue
system.mem_ctrls.writeBursts                   111501                       # Number of controller write bursts, including those merged in the write queue
system.mem_ctrls.servicedByWrQ                     53                       # Number of controller read bursts serviced by the write queue
system.mem_ctrls.mergedWrBursts                     0                       # Number of controller write bursts merged with an existing one
system.mem_ctrls.neitherReadNorWriteReqs            0                       # Number of requests that are neither read nor write
system.mem_ctrls.avgRdQLen                       1.08                       # Average read queue length when enqueuing
system.mem_ctrls.avgWrQLen                      24.78                       # Average write queue length when enqueuing
system.mem_ctrls.numRdRetry                         0                       # Number of times read queue was full causing retry
system.mem_ctrls.numWrRetry                         0                       # Number of times write queue was full causing retry
system.mem_ctrls.readPktSize::0                     0                       # Read request sizes (log2)
system.mem_ctrls.readPktSize::1                     0                       # Read request sizes (log2)
system.mem_ctrls.readPktSize::2                     0                       # Read request sizes (log2)
system.mem_ctrls.readPktSize::3                     0                       # Read request sizes (log2)
system.mem_ctrls.readPktSize::4                     0                       # Read request sizes (log2)
system.mem_ctrls.readPktSize::5                     0                       # Read request sizes (log2)
system.mem_ctrls.readPktSize::6                201867                       # Read request sizes (log2)
system.mem_ctrls.writePktSize::0                    0                       # Write request sizes (log2)
system.mem_ctrls.writePktSize::1                    0                       # Write request sizes (log2)
system.mem_ctrls.writePktSize::2                    0                       # Write request sizes (log2)
system.mem_ctrls.writePktSize::3                    0                       # Write request sizes (log2)
system.mem_ctrls.writePktSize::4                    0                       # Write request sizes (log2)
system.mem_ctrls.writePktSize::5                    0                       # Write request sizes (log2)
system.mem_ctrls.writePktSize::6               111501                       # Write request sizes (log2)
system.mem_ctrls.rdQLenPdf::0                  139328                       # What read queue length does an incoming req see
system.mem_ctrls.rdQLenPdf::1                   59375                       # What read queue length does an incoming req see
system.mem_ctrls.rdQLenPdf::2                    2697                       # What read queue length does an incoming req see
system.mem_ctrls.rdQLenPdf::3                     413                       # What read queue length does an incoming req see
system.mem_ctrls.rdQLenPdf::4                       1                       # What read queue length does an incoming req see
system.mem_ctrls.rdQLenPdf::5                       0                       # What read queue length does an incoming req see
system.mem_ctrls.rdQLenPdf::6                       0                       # What read queue length does an incoming req see
system.mem_ctrls.rdQLenPdf::7                       0                       # What read queue length does an incoming req see
system.mem_ctrls.rdQLenPdf::8                       0                       # What read queue length does an incoming req see
system.mem_ctrls.rdQLenPdf::9                       0                       # What read queue length does an incoming req see
system.mem_ctrls.rdQLenPdf::10                      0                       # What read queue length does an incoming req see
[...]
system.mem_ctrls.dram.bw_write::.writebacks     85342888                       # Write bandwidth from this memory (bytes/s)
system.mem_ctrls.dram.bw_write::total        85342888                       # Write bandwidth from this memory (bytes/s)
system.mem_ctrls.dram.bw_total::.writebacks     85342888                       # Total bandwidth to/from this memory (bytes/s)
system.mem_ctrls.dram.bw_total::.cpu.inst       514349                       # Total bandwidth to/from this memory (bytes/s)
system.mem_ctrls.dram.bw_total::.cpu.data    153994693                       # Total bandwidth to/from this memory (bytes/s)
system.mem_ctrls.dram.bw_total::total       239851930                       # Total bandwidth to/from this memory (bytes/s)
system.mem_ctrls.dram.readBursts               201814                       # Number of DRAM read bursts
system.mem_ctrls.dram.writeBursts              111474                       # Number of DRAM write bursts
system.mem_ctrls.dram.perBankRdBursts::0        12871                       # Per bank write bursts
system.mem_ctrls.dram.perBankRdBursts::1        12858                       # Per bank write bursts
system.mem_ctrls.dram.perBankRdBursts::2        12771                       # Per bank write bursts
system.mem_ctrls.dram.perBankRdBursts::3        12561                       # Per bank write bursts
system.mem_ctrls.dram.perBankRdBursts::4        12647                       # Per bank write bursts
system.mem_ctrls.dram.perBankRdBursts::5        12415                       # Per bank write bursts
system.mem_ctrls.dram.perBankRdBursts::6        12642                       # Per bank write bursts
system.mem_ctrls.dram.perBankRdBursts::7        12352                       # Per bank write bursts
system.mem_ctrls.dram.perBankRdBursts::8        12490                       # Per bank write bursts
system.mem_ctrls.dram.perBankRdBursts::9        12090                       # Per bank write bursts
system.mem_ctrls.dram.perBankRdBursts::10        12504                       # Per bank write bursts
system.mem_ctrls.dram.perBankRdBursts::11        12688                       # Per bank write bursts
system.mem_ctrls.dram.perBankRdBursts::12        12755                       # Per bank write bursts
system.mem_ctrls.dram.perBankRdBursts::13        12757                       # Per bank write bursts
system.mem_ctrls.dram.perBankRdBursts::14        12770                       # Per bank write bursts
system.mem_ctrls.dram.perBankRdBursts::15        12643                       # Per bank write bursts
system.mem_ctrls.dram.perBankWrBursts::0         7061                       # Per bank write bursts
system.mem_ctrls.dram.perBankWrBursts::1         7128                       # Per bank write bursts
system.mem_ctrls.dram.perBankWrBursts::2         7052                       # Per bank write bursts
system.mem_ctrls.dram.perBankWrBursts::3         6964                       # Per bank write bursts
system.mem_ctrls.dram.perBankWrBursts::4         7094                       # Per bank write bursts
system.mem_ctrls.dram.perBankWrBursts::5         6978                       # Per bank write bursts
system.mem_ctrls.dram.perBankWrBursts::6         7184                       # Per bank write bursts
system.mem_ctrls.dram.perBankWrBursts::7         6894                       # Per bank write bursts
system.mem_ctrls.dram.perBankWrBursts::8         6819                       # Per bank write bursts
system.mem_ctrls.dram.perBankWrBursts::9         6472                       # Per bank write bursts
system.mem_ctrls.dram.perBankWrBursts::10         6854                       # Per bank write bursts
system.mem_ctrls.dram.perBankWrBursts::11         6983                       # Per bank write bursts
system.mem_ctrls.dram.perBankWrBursts::12         6994                       # Per bank write bursts
system.mem_ctrls.dram.perBankWrBursts::13         6985                       # Per bank write bursts
system.mem_ctrls.dram.perBankWrBursts::14         7015                       # Per bank write bursts
system.mem_ctrls.dram.perBankWrBursts::15         6997                       # Per bank write bursts
system.mem_ctrls.dram.totQLat              2897394750                       # Total ticks spent queuing
system.mem_ctrls.dram.totBusLat            1009070000                       # Total ticks spent in databus transfers
system.mem_ctrls.dram.totMemAccLat         6681407250                       # Total ticks spent from burst creation until serviced by the DRAM
system.mem_ctrls.dram.avgQLat                14356.76                       # Average queueing delay per DRAM burst
system.mem_ctrls.dram.avgBusLat               5000.00                       # Average bus latency per DRAM burst
system.mem_ctrls.dram.avgMemAccLat           33106.76                       # Average memory access latency per DRAM burst
system.mem_ctrls.dram.readRowHits              138748                       # Number of row buffer hits during reads
system.mem_ctrls.dram.writeRowHits              70706                       # Number of row buffer hits during writes
system.mem_ctrls.dram.readRowHitRate            68.75                       # Row buffer hit rate for reads
system.mem_ctrls.dram.writeRowHitRate           63.43                       # Row buffer hit rate for writes
system.mem_ctrls.dram.bytesPerActivate::samples       103834                       # Bytes accessed per row activation
system.mem_ctrls.dram.bytesPerActivate::mean   193.100834                       # Bytes accessed per row activation
system.mem_ctrls.dram.bytesPerActivate::gmean   111.596251                       # Bytes accessed per row activation
system.mem_ctrls.dram.bytesPerActivate::stdev   260.145703                       # Bytes accessed per row activation
system.mem_ctrls.dram.bytesPerActivate::0-127        69064     66.51%     66.51% # Bytes accessed per row activation
system.mem_ctrls.dram.bytesPerActivate::128-255        13568     13.07%     79.58% # Bytes accessed per row activation
system.mem_ctrls.dram.bytesPerActivate::256-383         2454      2.36%     81.94% # Bytes accessed per row activation
system.mem_ctrls.dram.bytesPerActivate::384-511         1255      1.21%     83.15% # Bytes accessed per row activation
system.mem_ctrls.dram.bytesPerActivate::512-639         9660      9.30%     92.46% # Bytes accessed per row activation
system.mem_ctrls.dram.bytesPerActivate::640-767         1053      1.01%     93.47% # Bytes accessed per row activation
system.mem_ctrls.dram.bytesPerActivate::768-895          464      0.45%     93.92% # Bytes accessed per row activation
system.mem_ctrls.dram.bytesPerActivate::896-1023          330      0.32%     94.24% # Bytes accessed per row activation
system.mem_ctrls.dram.bytesPerActivate::1024-1151         5986      5.76%    100.00% # Bytes accessed per row activation
system.mem_ctrls.dram.bytesPerActivate::total       103834                       # Bytes accessed per row activation
system.mem_ctrls.dram.bytesRead              12916096                       # Total number of bytes read from DRAM
system.mem_ctrls.dram.bytesWritten            7134336                       # Total number of bytes written to DRAM
system.mem_ctrls.dram.avgRdBW              154.468476                       # Average DRAM read bandwidth in MiBytes/s
system.mem_ctrls.dram.avgWrBW               85.322222                       # Average DRAM write bandwidth in MiBytes/s
system.mem_ctrls.dram.peakBW                 12800.00                       # Theoretical peak bandwidth in MiByte/s
system.mem_ctrls.dram.busUtil                    1.87                       # Data bus utilization in percentage
system.mem_ctrls.dram.busUtilRead                1.21                       # Data bus utilization in percentage for reads
system.mem_ctrls.dram.busUtilWrite               0.67                       # Data bus utilization in percentage for writes
system.mem_ctrls.dram.pageHitRate               66.86                       # Row buffer hit rate, read and write combined
system.mem_ctrls.dram.power_state.pwrStateResidencyTicks::UNDEFINED  83616388000                       # Cumulative time (in ticks) in various power states
system.mem_ctrls.dram.rank0.actEnergy       374121720                       # Energy for activate commands per rank (pJ)
system.mem_ctrls.dram.rank0.preEnergy       198850410                       # Energy for precharge commands per rank (pJ)
system.mem_ctrls.dram.rank0.readEnergy      721975380                       # Energy for read commands per rank (pJ)
system.mem_ctrls.dram.rank0.writeEnergy     294173100                       # Energy for write commands per rank (pJ)
system.mem_ctrls.dram.rank0.refreshEnergy 6600004320.000001                       # Energy for refresh commands per rank (pJ)
system.mem_ctrls.dram.rank0.actBackEnergy  21660114570                       # Energy for active background per rank (pJ)
system.mem_ctrls.dram.rank0.preBackEnergy  13868596800                       # Energy for precharge background per rank (pJ)
system.mem_ctrls.dram.rank0.actPowerDownEnergy            0                       # Energy for active power-down per rank (pJ)
system.mem_ctrls.dram.rank0.prePowerDownEnergy            0                       # Energy for precharge power-down per rank (pJ)
system.mem_ctrls.dram.rank0.selfRefreshEnergy            0                       # Energy for self refresh per rank (pJ)
system.mem_ctrls.dram.rank0.totalEnergy   43717836300                       # Total energy per rank (pJ)
system.mem_ctrls.dram.rank0.averagePower   522.838134                       # Core power per rank (mW)
system.mem_ctrls.dram.rank0.totalIdleTime            0                       # Total Idle time Per DRAM Rank
system.mem_ctrls.dram.rank0.pwrStateTime::IDLE  35831884000                       # Time in different power states
system.mem_ctrls.dram.rank0.pwrStateTime::REF   2791880000                       # Time in different power states
system.mem_ctrls.dram.rank0.pwrStateTime::SREF            0                       # Time in different power states
system.mem_ctrls.dram.rank0.pwrStateTime::PRE_PDN            0                       # Time in different power states
system.mem_ctrls.dram.rank0.pwrStateTime::ACT  44992624000                       # Time in different power states
system.mem_ctrls.dram.rank0.pwrStateTime::ACT_PDN            0                       # Time in different power states
system.mem_ctrls.dram.rank1.actEnergy       367253040                       # Energy for activate commands per rank (pJ)
system.mem_ctrls.dram.rank1.preEnergy       195199620                       # Energy for precharge commands per rank (pJ)
system.mem_ctrls.dram.rank1.readEnergy      718976580                       # Energy for read commands per rank (pJ)
system.mem_ctrls.dram.rank1.writeEnergy     287721180                       # Energy for write commands per rank (pJ)
system.mem_ctrls.dram.rank1.refreshEnergy 6600004320.000001                       # Energy for refresh commands per rank (pJ)
system.mem_ctrls.dram.rank1.actBackEnergy  21329232990                       # Energy for active background per rank (pJ)
system.mem_ctrls.dram.rank1.preBackEnergy  14147233920                       # Energy for precharge background per rank (pJ)
system.mem_ctrls.dram.rank1.actPowerDownEnergy            0                       # Energy for active power-down per rank (pJ)
system.mem_ctrls.dram.rank1.prePowerDownEnergy            0                       # Energy for precharge power-down per rank (pJ)
system.mem_ctrls.dram.rank1.selfRefreshEnergy            0                       # Energy for self refresh per rank (pJ)
system.mem_ctrls.dram.rank1.totalEnergy   43645621650                       # Total energy per rank (pJ)
system.mem_ctrls.dram.rank1.averagePower   521.974492                       # Core power per rank (mW)
system.mem_ctrls.dram.rank1.totalIdleTime            0                       # Total Idle time Per DRAM Rank
system.mem_ctrls.dram.rank1.pwrStateTime::IDLE  36557425000                       # Time in different power states
system.mem_ctrls.dram.rank1.pwrStateTime::REF   2791880000                       # Time in different power states
system.mem_ctrls.dram.rank1.pwrStateTime::SREF            0                       # Time in different power states
system.mem_ctrls.dram.rank1.pwrStateTime::PRE_PDN            0                       # Time in different power states
system.mem_ctrls.dram.rank1.pwrStateTime::ACT  44267083000                       # Time in different power states
system.mem_ctrls.dram.rank1.pwrStateTime::ACT_PDN            0                       # Time in different power states
system.mem_ctrls.power_state.pwrStateResidencyTicks::UNDEFINED  83616388000                       # Cumulative time (in ticks) in various power states
system.membus.trans_dist::ReadResp              65244                       # Transaction distribution
system.membus.trans_dist::WritebackDirty       111501                       # Transaction distribution
system.membus.trans_dist::CleanEvict            57219                       # Transaction distribution
system.membus.trans_dist::ReadExReq            136623                       # Transaction distribution
system.membus.trans_dist::ReadExResp           136623                       # Transaction distribution
system.membus.trans_dist::ReadSharedReq         65244                       # Transaction distribution
system.membus.pkt_count_system.l2.mem_side_port::system.mem_ctrls.port       572454                       # Packet count per connected requestor and responder (bytes)
system.membus.pkt_count::total                 572454                       # Packet count per connected requestor and responder (bytes)
system.membus.pkt_size_system.l2.mem_side_port::system.mem_ctrls.port     20055552                       # Cumulative packet size per connected requestor and responder (bytes)
system.membus.pkt_size::total                20055552                       # Cumulative packet size per connected requestor and responder (bytes)
system.membus.snoops                                0                       # Total snoops (count)
system.membus.snoopTraffic                          0                       # Total snoop traffic (bytes)
system.membus.snoop_fanout::samples            201867                       # Request fanout histogram
system.membus.snoop_fanout::mean                    0                       # Request fanout histogram
system.membus.snoop_fanout::stdev                   0                       # Request fanout histogram
system.membus.snoop_fanout::underflows              0      0.00%      0.00% # Request fanout histogram
system.membus.snoop_fanout::0                  201867    100.00%    100.00% # Request fanout histogram
system.membus.snoop_fanout::1                       0      0.00%    100.00% # Request fanout histogram
system.membus.snoop_fanout::overflows               0      0.00%    100.00% # Request fanout histogram
system.membus.snoop_fanout::min_value               0                       # Request fanout histogram
system.membus.snoop_fanout::max_value               0                       # Request fanout histogram
system.membus.snoop_fanout::total              201867                       # Request fanout histogram
system.membus.power_state.pwrStateResidencyTicks::UNDEFINED  83616388000                       # Cumulative time (in ticks) in various power states
system.membus.reqLayer0.occupancy           853994000                       # Layer occupancy (ticks)
system.membus.reqLayer0.utilization               1.0                       # Layer utilization (%)
system.membus.respLayer1.occupancy         1087157500                       # Layer occupancy (ticks)
system.membus.respLayer1.utilization              1.3                       # Layer utilization (%)
system.tol2bus.trans_dist::ReadResp            396785                       # Transaction distribution
system.tol2bus.trans_dist::WritebackDirty       719549                       # Transaction distribution
system.tol2bus.trans_dist::WritebackClean          333                       # Transaction distribution
system.tol2bus.trans_dist::CleanEvict          131449                       # Transaction distribution
system.tol2bus.trans_dist::ReadExReq           286774                       # Transaction distribution
system.tol2bus.trans_dist::ReadExResp          286774                       # Transaction distribution
system.tol2bus.trans_dist::ReadCleanReq           773                       # Transaction distribution
system.tol2bus.trans_dist::ReadSharedReq       396012                       # Transaction distribution
system.tol2bus.pkt_count_system.cpu.icache.mem_side_port::system.l2.cpu_side_port         1879                       # Packet count per connected requestor and responder (bytes)
system.tol2bus.pkt_count_system.cpu.dcache.mem_side_port::system.l2.cpu_side_port      2047334                       # Packet count per connected requestor and responder (bytes)
system.tol2bus.pkt_count::total               2049213                       # Packet count per connected requestor and responder (bytes)
system.tol2bus.pkt_size_system.cpu.icache.mem_side_port::system.l2.cpu_side_port        70784                       # Cumulative packet size per connected requestor and responder (bytes)
system.tol2bus.pkt_size_system.cpu.dcache.mem_side_port::system.l2.cpu_side_port     82613376                       # Cumulative packet size per connected requestor and responder (bytes)
system.tol2bus.pkt_size::total               82684160                       # Cumulative packet size per connected requestor and responder (bytes)
system.tol2bus.snoops                          169236                       # Total snoops (count)
system.tol2bus.snoopTraffic                   7136064                       # Total snoop traffic (bytes)
system.tol2bus.snoop_fanout::samples           852795                       # Request fanout histogram
system.tol2bus.snoop_fanout::mean            0.000695                       # Request fanout histogram
system.tol2bus.snoop_fanout::stdev           0.026361                       # Request fanout histogram
system.tol2bus.snoop_fanout::underflows             0      0.00%      0.00% # Request fanout histogram
system.tol2bus.snoop_fanout::0                 852202     99.93%     99.93% # Request fanout histogram
system.tol2bus.snoop_fanout::1                    593      0.07%    100.00% # Request fanout histogram
system.tol2bus.snoop_fanout::2                      0      0.00%    100.00% # Request fanout histogram
system.tol2bus.snoop_fanout::overflows              0      0.00%    100.00% # Request fanout histogram
system.tol2bus.snoop_fanout::min_value              0                       # Request fanout histogram
system.tol2bus.snoop_fanout::max_value              1                       # Request fanout histogram
system.tol2bus.snoop_fanout::total             852795                       # Request fanout histogram
system.tol2bus.power_state.pwrStateResidencyTicks::UNDEFINED  83616388000                       # Cumulative time (in ticks) in various power states
system.tol2bus.reqLayer0.occupancy         1291208000                       # Layer occupancy (ticks)
system.tol2bus.reqLayer0.utilization              1.5                       # Layer utilization (%)
system.tol2bus.respLayer0.occupancy           1159500                       # Layer occupancy (ticks)
system.tol2bus.respLayer0.utilization             0.0                       # Layer utilization (%)
system.tol2bus.respLayer1.occupancy        1024181994                       # Layer occupancy (ticks)
system.tol2bus.respLayer1.utilization             1.2                       # Layer utilization (%)
system.voltage_domain.voltage                       1                       # Voltage in Volts

---------- End Simulation Statistics   ----------
