
---------- Begin Simulation Statistics ----------
final_tick                                69564064000                       # Number of ticks from beginning of simulation (restored from checkpoints and never reset)
host_inst_rate                                 375605                       # Simulator instruction rate (inst/s)
host_mem_usage                                 668064                       # Number of bytes of host memory used
host_op_rate                                   438807                       # Simulator op (including micro ops) rate (op/s)
host_seconds                                   266.24                       # Real time elapsed on the host
host_tick_rate                              261286247                       # Simulator tick rate (ticks/s)
sim_freq                                 1000000000000                       # Frequency of simulated ticks
sim_insts                                   100000000                       # Number of instructions simulated
sim_ops                                     116826593                       # Number of ops (including micro ops) simulated
sim_seconds                                  0.069564                       # Number of seconds simulated
sim_ticks                                 69564064000                       # Number of ticks simulated
system.cpu.committedInsts                   100000000                       # Number of instructions committed
system.cpu.committedOps                     116826593                       # Number of ops (including micro ops) committed
system.cpu.cpi                               1.391281                       # CPI: cycles per instruction
system.cpu.discardedOps                        503632                       # Number of ops (including micro ops) which were discarded before commit
system.cpu.idleCycles                         4265754                       # Total number of cycles that the object has spent stopped
system.cpu.ipc                               0.718762                       # IPC: instructions per cycle
system.cpu.numCycles                        139128128                       # number of cpu cycles simulated
system.cpu.numFetchSuspends                         0                       # Number of times Execute suspended instruction fetching
system.cpu.numWorkItemsCompleted                    0                       # number of work items this cpu completed
system.cpu.numWorkItemsStarted                      0                       # number of work items this cpu started
system.cpu.op_class_0::No_OpClass                   0      0.00%      0.00% # Class of committed instruction
system.cpu.op_class_0::IntAlu                65231396     55.84%     55.84% # Class of committed instruction
system.cpu.op_class_0::IntMult                 602374      0.52%     56.35% # Class of committed instruction
system.cpu.op_class_0::IntDiv                       0      0.00%     56.35% # Class of committed instruction
system.cpu.op_class_0::FloatAdd                     0      0.00%     56.35% # Class of committed instruction
system.cpu.op_class_0::FloatCmp                     0      0.00%     56.35% # Class of committed instruction
system.cpu.op_class_0::FloatCvt                     0      0.00%     56.35% # Class of committed instruction
system.cpu.op_class_0::FloatMult                    0      0.00%     56.35% # Class of committed instruction
system.cpu.op_class_0::FloatMultAcc                 0      0.00%     56.35% # Class of committed instruction
system.cpu.op_class_0::FloatDiv                     0      0.00%     56.35% # Class of committed instruction
system.cpu.op_class_0::FloatMisc                    0      0.00%     56.35% # Class of committed instruction
system.cpu.op_class_0::FloatSqrt                    0      0.00%     56.35% # Class of committed instruction
system.cpu.op_class_0::SimdAdd                    380      0.00%     56.35% # Class of committed instruction
system.cpu.op_class_0::SimdAddAcc                   0      0.00%     56.35% # Class of committed instruction
system.cpu.op_class_0::SimdAlu                    470      0.00%     56.35% # Class of committed instruction
system.cpu.op_class_0::SimdCmp                    382      0.00%     56.35% # Class of committed instruction
system.cpu.op_class_0::SimdCvt                      0      0.00%     56.35% # Class of committed instruction
system.cpu.op_class_0::SimdMisc                    53      0.00%     56.35% # Class of committed instruction
system.cpu.op_class_0::SimdMult                     0      0.00%     56.35% # Class of committed instruction
system.cpu.op_class_0::SimdMultAcc                  0      0.00%     56.35% # Class of committed instruction
system.cpu.op_class_0::SimdShift                    0      0.00%     56.35% # Class of committed instruction
system.cpu.op_class_0::SimdShiftAcc                 0      0.00%     56.35% # Class of committed instruction
system.cpu.op_class_0::SimdDiv                      0      0.00%     56.35% # Class of committed instruction
system.cpu.op_class_0::SimdSqrt                     0      0.00%     56.35% # Class of committed instruction
system.cpu.op_class_0::SimdFloatAdd            783705      0.67%     57.02% # Class of committed instruction
system.cpu.op_class_0::SimdFloatAlu                 0      0.00%     57.02% # Class of committed instruction
system.cpu.op_class_0::SimdFloatCmp            769156      0.66%     57.68% # Class of committed instruction
system.cpu.op_class_0::SimdFloatCvt            311548      0.27%     57.95% # Class of committed instruction
system.cpu.op_class_0::SimdFloatDiv            152211      0.13%     58.08% # Class of committed instruction
system.cpu.op_class_0::SimdFloatMisc           950762      0.81%     58.89% # Class of committed instruction
system.cpu.op_class_0::SimdFloatMult            86008      0.07%     58.97% # Class of committed instruction
system.cpu.op_class_0::SimdFloatMultAcc         12802      0.01%     58.98% # Class of committed instruction
system.cpu.op_class_0::SimdFloatSqrt                0      0.00%     58.98% # Class of committed instruction
system.cpu.op_class_0::SimdReduceAdd                0      0.00%     58.98% # Class of committed instruction
system.cpu.op_class_0::SimdReduceAlu                0      0.00%     58.98% # Class of committed instruction
system.cpu.op_class_0::SimdReduceCmp                0      0.00%     58.98% # Class of committed instruction
system.cpu.op_class_0::SimdFloatReduceAdd            0      0.00%     58.98% # Class of committed instruction
system.cpu.op_class_0::SimdFloatReduceCmp            0      0.00%     58.98% # Class of committed instruction
system.cpu.op_class_0::SimdAes                      0      0.00%     58.98% # Class of committed instruction
system.cpu.op_class_0::SimdAesMix                   0      0.00%     58.98% # Class of committed instruction
system.cpu.op_class_0::SimdSha1Hash                 0      0.00%     58.98% # Class of committed instruction
system.cpu.op_class_0::SimdSha1Hash2                0      0.00%     58.98% # Class of committed instruction
system.cpu.op_class_0::SimdSha256Hash               0      0.00%     58.98% # Class of committed instruction
system.cpu.op_class_0::SimdSha256Hash2              0      0.00%     58.98% # Class of committed instruction
system.cpu.op_class_0::SimdShaSigma2                0      0.00%     58.98% # Class of committed instruction
system.cpu.op_class_0::SimdShaSigma3                0      0.00%     58.98% # Class of committed instruction
system.cpu.op_class_0::SimdPredAlu                  0      0.00%     58.98% # Class of committed instruction
system.cpu.op_class_0::MemRead               30319972     25.95%     84.93% # Class of committed instruction
system.cpu.op_class_0::MemWrite              17605374     15.07%    100.00% # Class of committed instruction
system.cpu.op_class_0::FloatMemRead                 0      0.00%    100.00% # Class of committed instruction
system.cpu.op_class_0::FloatMemWrite                0      0.00%    100.00% # Class of committed instruction
system.cpu.op_class_0::IprAccess                    0      0.00%    100.00% # Class of committed instruction
system.cpu.op_class_0::InstPrefetch                 0      0.00%    100.00% # Class of committed instruction
system.cpu.op_class_0::total                116826593                       # Class of committed instruction
system.cpu.tickCycles                       134862374                       # Number of cycles that the object actually ticked
system.cpu.workload.numSyscalls                    33                       # Number of system calls
system.membus.snoop_filter.hit_multi_requests            0                       # Number of requests hitting in the snoop filter with multiple (>1) holders of the requested data.
system.membus.snoop_filter.hit_multi_snoops            0                       # Number of snoops hitting in the snoop filter with multiple (>1) holders of the requested data.
system.membus.snoop_filter.hit_single_requests            0                       # Number of requests hitting in the snoop filter with a single holder of the requested data.
system.membus.snoop_filter.hit_single_snoops            0                       # Number of snoops hitting in the snoop filter with a single holder of the requested data.
system.membus.snoop_filter.tot_requests          3025                       # Total number of requests made to the snoop filter.
system.membus.snoop_filter.tot_snoops               0                       # Total number of snoops made to the snoop filter.
system.tol2bus.snoop_filter.hit_multi_requests         2196                       # Number of requests hitting in the snoop filter with multiple (>1) holders of the requested data.
system.tol2bus.snoop_filter.hit_multi_snoops            0                       # Number of snoops hitting in the snoop filter with multiple (>1) holders of the requested data.
system.tol2bus.snoop_filter.hit_single_requests       102619                       # Number of requests hitting in the snoop filter with a single holder of the requested data.
system.tol2bus.snoop_filter.hit_single_snoops            0                       # Number of snoops hitting in the snoop filter with a single holder of the requested data.
system.tol2bus.snoop_filter.tot_requests       205978                       # Total number of requests made to the snoop filter.
system.tol2bus.snoop_filter.tot_snoops              0                       # Total number of snoops made to the snoop filter.
system.clk_domain.clock                          1000                       # Clock period in ticks
system.cpu.branchPred.lookups                 6095759                       # Number of BP lookups
system.cpu.branchPred.condPredicted           5266184                       # Number of conditional branches predicted
system.cpu.branchPred.condIncorrect            188571                       # Number of conditional branches incorrect
system.cpu.branchPred.BTBLookups              3813244                       # Number of BTB lookups
system.cpu.branchPred.BTBHits                 3808217                       # Number of BTB hits
system.cpu.branchPred.BTBHitPct             99.868170                       # BTB Hit Percentage
system.cpu.branchPred.RASUsed                  248505                       # Number of times the RAS was used to get a target.
system.cpu.branchPred.RASIncorrect                  3                       # Number of incorrect RAS predictions.
system.cpu.branchPred.indirectLookups          154331                       # Number of indirect predictor lookups.
system.cpu.branchPred.indirectHits                236                       # Number of indirect target hits.
system.cpu.branchPred.indirectMisses           154095                       # Number of indirect misses.
system.cpu.branchPred.indirectMispredicted          199                       # Number of mispredicted indirect branches.
system.cpu.dcache.demand_hits::.cpu.data     47543523                       # number of demand (read+write) hits
system.cpu.dcache.demand_hits::total         47543523                       # number of demand (read+write) hits
system.cpu.dcache.overall_hits::.cpu.data     47568506                       # number of overall hits
system.cpu.dcache.overall_hits::total        47568506                       # number of overall hits
system.cpu.dcache.demand_misses::.cpu.data       163847                       # number of demand (read+write) misses
system.cpu.dcache.demand_misses::total         163847                       # number of demand (read+write) misses
system.cpu.dcache.overall_misses::.cpu.data       164083                       # number of overall misses
system.cpu.dcache.overall_misses::total        164083                       # number of overall misses
system.cpu.dcache.demand_miss_latency::.cpu.data   2100806000                       # number of demand (read+write) miss cycles
system.cpu.dcache.demand_miss_latency::total   2100806000                       # number of demand (read+write) miss cycles
system.cpu.dcache.overall_miss_latency::.cpu.data   2100806000                       # number of overall miss cycles
system.cpu.dcache.overall_miss_latency::total   2100806000                       # number of overall miss cycles
system.cpu.dcache.demand_accesses::.cpu.data     47707370                       # number of demand (read+write) accesses
system.cpu.dcache.demand_accesses::total     47707370                       # number of demand (read+write) accesses
system.cpu.dcache.overall_accesses::.cpu.data     47732589                       # number of overall (read+write) accesses
system.cpu.dcache.overall_accesses::total     47732589                       # number of overall (read+write) accesses
system.cpu.dcache.demand_miss_rate::.cpu.data     0.003434                       # miss rate for demand accesses
system.cpu.dcache.demand_miss_rate::total     0.003434                       # miss rate for demand accesses
system.cpu.dcache.overall_miss_rate::.cpu.data     0.003438                       # miss rate for overall accesses
system.cpu.dcache.overall_miss_rate::total     0.003438                       # miss rate for overall accesses
system.cpu.dcache.demand_avg_miss_latency::.cpu.data 12821.754442                       # average overall miss latency
system.cpu.dcache.demand_avg_miss_latency::total 12821.754442                       # average overall miss latency
system.cpu.dcache.overall_avg_miss_latency::.cpu.data 12803.312957                       # average overall miss latency
system.cpu.dcache.overall_avg_miss_latency::total 12803.312957                       # average overall miss latency
system.cpu.dcache.blocked_cycles::no_mshrs            0                       # number of cycles access was blocked
system.cpu.dcache.blocked_cycles::no_targets            0                       # number of cycles access was blocked
system.cpu.dcache.blocked::no_mshrs                 0                       # number of cycles access was blocked
system.cpu.dcache.blocked::no_targets               0                       # number of cycles access was blocked
system.cpu.dcache.avg_blocked_cycles::no_mshrs          nan                       # average number of cycles each access was blocked
system.cpu.dcache.avg_blocked_cycles::no_targets          nan                       # average number of cycles each access was blocked
system.cpu.dcache.writebacks::.writebacks        96204                       # number of writebacks
system.cpu.dcache.writebacks::total             96204                       # number of writebacks
system.cpu.dcache.demand_mshr_hits::.cpu.data        64435                       # number of demand (read+write) MSHR hits
system.cpu.dcache.demand_mshr_hits::total        64435                       # number of demand (read+write) MSHR hits
system.cpu.dcache.overall_mshr_hits::.cpu.data        64435                       # number of overall MSHR hits
system.cpu.dcache.overall_mshr_hits::total        64435                       # number of overall MSHR hits
system.cpu.dcache.demand_mshr_misses::.cpu.data        99412                       # number of demand (read+write) MSHR misses
system.cpu.dcache.demand_mshr_misses::total        99412                       # number of demand (read+write) MSHR misses
system.cpu.dcache.overall_mshr_misses::.cpu.data        99624                       # number of overall MSHR misses
system.cpu.dcache.overall_mshr_misses::total        99624                       # number of overall MSHR misses
system.cpu.dcache.demand_mshr_miss_latency::.cpu.data   1395175000                       # number of demand (read+write) MSHR miss cycles
system.cpu.dcache.demand_mshr_miss_latency::total   1395175000                       # number of demand (read+write) MSHR miss cycles
system.cpu.dcache.overall_mshr_miss_latency::.cpu.data   1401192500                       # number of overall MSHR miss cycles
system.cpu.dcache.overall_mshr_miss_latency::total   1401192500                       # number of overall MSHR miss cycles
system.cpu.dcache.demand_mshr_miss_rate::.cpu.data     0.002084                       # mshr miss rate for demand accesses
system.cpu.dcache.demand_mshr_miss_rate::total     0.002084                       # mshr miss rate for demand accesses
system.cpu.dcache.overall_mshr_miss_rate::.cpu.data     0.002087                       # mshr miss rate for overall accesses
system.cpu.dcache.overall_mshr_miss_rate::total     0.002087                       # mshr miss rate for overall accesses
system.cpu.dcache.demand_avg_mshr_miss_latency::.cpu.data 14034.271517                       # average overall mshr miss latency
system.cpu.dcache.demand_avg_mshr_miss_latency::total 14034.271517                       # average overall mshr miss latency
system.cpu.dcache.overall_avg_mshr_miss_latency::.cpu.data 14064.808681                       # average overall mshr miss latency
system.cpu.dcache.overall_avg_mshr_miss_latency::total 14064.808681                       # average overall mshr miss latency
system.cpu.dcache.replacements                  99112                       # number of replacements
system.cpu.dcache.ReadReq_hits::.cpu.data     30204761                       # number of ReadReq hits
system.cpu.dcache.ReadReq_hits::total        30204761                       # number of ReadReq hits
system.cpu.dcache.ReadReq_misses::.cpu.data        28414                       # number of ReadReq misses
system.cpu.dcache.ReadReq_misses::total         28414                       # number of ReadReq misses
system.cpu.dcache.ReadReq_miss_latency::.cpu.data    444171500                       # number of ReadReq miss cycles
system.cpu.dcache.ReadReq_miss_latency::total    444171500                       # number of ReadReq miss cycles
system.cpu.dcache.ReadReq_accesses::.cpu.data     30233175                       # number of ReadReq accesses(hits+misses)
system.cpu.dcache.ReadReq_accesses::total     30233175                       # number of ReadReq accesses(hits+misses)
system.cpu.dcache.ReadReq_miss_rate::.cpu.data     0.000940                       # miss rate for ReadReq accesses
system.cpu.dcache.ReadReq_miss_rate::total     0.000940                       # miss rate for ReadReq accesses
system.cpu.dcache.ReadReq_avg_miss_latency::.cpu.data 15632.135567                       # average ReadReq miss latency
system.cpu.dcache.ReadReq_avg_miss_latency::total 15632.135567                       # average ReadReq miss latency
system.cpu.dcache.ReadReq_mshr_hits::.cpu.data         1570                       # number of ReadReq MSHR hits
system.cpu.dcache.ReadReq_mshr_hits::total         1570                       # number of ReadReq MSHR hits
system.cpu.dcache.ReadReq_mshr_misses::.cpu.data        26844                       # number of ReadReq MSHR misses
system.cpu.dcache.ReadReq_mshr_misses::total        26844                       # number of ReadReq MSHR misses
system.cpu.dcache.ReadReq_mshr_miss_latency::.cpu.data    390069000                       # number of ReadReq MSHR miss cycles
system.cpu.dcache.ReadReq_mshr_miss_latency::total    390069000                       # number of ReadReq MSHR miss cycles
system.cpu.dcache.ReadReq_mshr_miss_rate::.cpu.data     0.000888                       # mshr miss rate for ReadReq accesses
system.cpu.dcache.ReadReq_mshr_miss_rate::total     0.000888                       # mshr miss rate for ReadReq accesses
system.cpu.dcache.ReadReq_avg_mshr_miss_latency::.cpu.data 14530.956638                       # average ReadReq mshr miss latency
system.cpu.dcache.ReadReq_avg_mshr_miss_latency::total 14530.956638                       # average ReadReq mshr miss latency
system.cpu.dcache.WriteReq_hits::.cpu.data     17338762                       # number of WriteReq hits
system.cpu.dcache.WriteReq_hits::total       17338762                       # number of WriteReq hits
system.cpu.dcache.WriteReq_misses::.cpu.data       135433                       # number of WriteReq misses
system.cpu.dcache.WriteReq_misses::total       135433                       # number of WriteReq misses
system.cpu.dcache.WriteReq_miss_latency::.cpu.data   1656634500                       # number of WriteReq miss cycles
system.cpu.dcache.WriteReq_miss_latency::total   1656634500                       # number of WriteReq miss cycles
system.cpu.dcache.WriteReq_accesses::.cpu.data     17474195                       # number of WriteReq accesses(hits+misses)
system.cpu.dcache.WriteReq_accesses::total     17474195                       # number of WriteReq accesses(hits+misses)
system.cpu.dcache.WriteReq_miss_rate::.cpu.data     0.007750                       # miss rate for WriteReq accesses
system.cpu.dcache.WriteReq_miss_rate::total     0.007750                       # miss rate for WriteReq accesses
system.cpu.dcache.WriteReq_avg_miss_latency::.cpu.data 12232.133232                       # average WriteReq miss latency
system.cpu.dcache.WriteReq_avg_miss_latency::total 12232.133232                       # average WriteReq miss latency
system.cpu.dcache.WriteReq_mshr_hits::.cpu.data        62865                       # number of WriteReq MSHR hits
system.cpu.dcache.WriteReq_mshr_hits::total        62865                       # number of WriteReq MSHR hits
system.cpu.dcache.WriteReq_mshr_misses::.cpu.data        72568                       # number of WriteReq MSHR misses
system.cpu.dcache.WriteReq_mshr_misses::total        72568                       # number of WriteReq MSHR misses
system.cpu.dcache.WriteReq_mshr_miss_latency::.cpu.data   1005106000                       # number of WriteReq MSHR miss cycles
system.cpu.dcache.WriteReq_mshr_miss_latency::total   1005106000                       # number of WriteReq MSHR miss cycles
system.cpu.dcache.WriteReq_mshr_miss_rate::.cpu.data     0.004153                       # mshr miss rate for WriteReq accesses
system.cpu.dcache.WriteReq_mshr_miss_rate::total     0.004153                       # mshr miss rate for WriteReq accesses
system.cpu.dcache.WriteReq_avg_mshr_miss_latency::.cpu.data 13850.540183                       # average WriteReq mshr miss latency
system.cpu.dcache.WriteReq_avg_mshr_miss_latency::total 13850.540183                       # average WriteReq mshr miss latency
system.cpu.dcache.SoftPFReq_hits::.cpu.data        24983                       # number of SoftPFReq hits
system.cpu.dcache.SoftPFReq_hits::total         24983                       # number of SoftPFReq hits
system.cpu.dcache.SoftPFReq_misses::.cpu.data          236                       # number of SoftPFReq misses
system.cpu.dcache.SoftPFReq_misses::total          236                       # number of SoftPFReq misses
system.cpu.dcache.SoftPFReq_accesses::.cpu.data        25219                       # number of SoftPFReq accesses(hits+misses)
system.cpu.dcache.SoftPFReq_accesses::total        25219                       # number of SoftPFReq accesses(hits+misses)
system.cpu.dcache.SoftPFReq_miss_rate::.cpu.data     0.009358                       # miss rate for SoftPFReq accesses
system.cpu.dcache.SoftPFReq_miss_rate::total     0.009358                       # miss rate for SoftPFReq accesses
system.cpu.dcache.SoftPFReq_mshr_misses::.cpu.data          212                       # number of SoftPFReq MSHR misses
system.cpu.dcache.SoftPFReq_mshr_misses::total          212                       # number of SoftPFReq MSHR misses
system.cpu.dcache.SoftPFReq_mshr_miss_latency::.cpu.data      6017500                       # number of SoftPFReq MSHR miss cycles
system.cpu.dcache.SoftPFReq_mshr_miss_latency::total      6017500                       # number of SoftPFReq MSHR miss cycles
system.cpu.dcache.SoftPFReq_mshr_miss_rate::.cpu.data     0.008406                       # mshr miss rate for SoftPFReq accesses
system.cpu.dcache.SoftPFReq_mshr_miss_rate::total     0.008406                       # mshr miss rate for SoftPFReq accesses
system.cpu.dcache.SoftPFReq_avg_mshr_miss_latency::.cpu.data 28384.433962                       # average SoftPFReq mshr miss latency
system.cpu.dcache.SoftPFReq_avg_mshr_miss_latency::total 28384.433962                       # average SoftPFReq mshr miss latency
system.cpu.dcache.LoadLockedReq_hits::.cpu.data          166                       # number of LoadLockedReq hits
system.cpu.dcache.LoadLockedReq_hits::total          166                       # number of LoadLockedReq hits
system.cpu.dcache.LoadLockedReq_accesses::.cpu.data          166                       # number of LoadLockedReq accesses(hits+misses)
system.cpu.dcache.LoadLockedReq_accesses::total          166                       # number of LoadLockedReq accesses(hits+misses)
system.cpu.dcache.StoreCondReq_hits::.cpu.data          166                       # number of StoreCondReq hits
system.cpu.dcache.StoreCondReq_hits::total          166                       # number of StoreCondReq hits
system.cpu.dcache.StoreCondReq_accesses::.cpu.data          166                       # number of StoreCondReq accesses(hits+misses)
system.cpu.dcache.StoreCondReq_accesses::total          166                       # number of StoreCondReq accesses(hits+misses)
system.cpu.dcache.power_state.pwrStateResidencyTicks::UNDEFINED  69564064000                       # Cumulative time (in ticks) in various power states
system.cpu.dcache.tags.tagsinuse           509.990427                       # Cycle average of tags in use
system.cpu.dcache.tags.total_refs            47668462                       # Total number of references to valid blocks.
system.cpu.dcache.tags.sampled_refs             99624                       # Sample count of references to valid blocks.
system.cpu.dcache.tags.avg_refs            478.483719                       # Average number of references to valid blocks.
system.cpu.dcache.tags.warmup_cycle            186500                       # Cycle when the warmup percentage was hit.
system.cpu.dcache.tags.occ_blocks::.cpu.data   509.990427                       # Average occupied blocks per requestor
system.cpu.dcache.tags.occ_percent::.cpu.data     0.996075                       # Average percentage of cache occupancy
system.cpu.dcache.tags.occ_percent::total     0.996075                       # Average percentage of cache occupancy
system.cpu.dcache.tags.occ_task_id_blocks::1024          512                       # Occupied blocks per task id
system.cpu.dcache.tags.age_task_id_blocks_1024::0           10                       # Occupied blocks per task id
system.cpu.dcache.tags.age_task_id_blocks_1024::1           88                       # Occupied blocks per task id
system.cpu.dcache.tags.age_task_id_blocks_1024::2          267                       # Occupied blocks per task id
system.cpu.dcache.tags.age_task_id_blocks_1024::3          142                       # Occupied blocks per task id
system.cpu.dcache.tags.age_task_id_blocks_1024::4            5                       # Occupied blocks per task id
system.cpu.dcache.tags.occ_task_id_percent::1024            1                       # Percentage of cache occupancy per task id
system.cpu.dcache.tags.tag_accesses          95565466                       # Number of tag accesses
system.cpu.dcache.tags.data_accesses         95565466                       # Number of data accesses
system.cpu.dcache.tags.power_state.pwrStateResidencyTicks::UNDEFINED  69564064000                       # Cumulative time (in ticks) in various power states
system.cpu.dtb.instHits                             0                       # ITB inst hits
system.cpu.dtb.instMisses                           0                       # ITB inst misses
system.cpu.dtb.readHits                             0                       # DTB read hits
system.cpu.dtb.readMisses                           0                       # DTB read misses
system.cpu.dtb.writeHits                            0                       # DTB write hits
system.cpu.dtb.writeMisses                          0                       # DTB write misses
system.cpu.dtb.inserts                              0                       # Number of times an entry is inserted into the TLB
system.cpu.dtb.flushTlb                             0                       # Number of times complete TLB was flushed
system.cpu.dtb.flushTlbMva                          0                       # Number of times TLB was flushed by MVA
system.cpu.dtb.flushTlbMvaAsid                      0                       # Number of times TLB was flushed by MVA & ASID
system.cpu.dtb.flushTlbAsid                         0                       # Number of times TLB was flushed by ASID
system.cpu.dtb.flushedEntries                       0                       # Number of entries that have been flushed from TLB
system.cpu.dtb.alignFaults                          0                       # Number of TLB faults due to alignment restrictions
system.cpu.dtb.prefetchFaults                       0                       # Number of TLB faults due to prefetch
system.cpu.dtb.domainFaults                         0                       # Number of TLB faults due to domain restrictions
system.cpu.dtb.permsFaults                          0                       # Number of TLB faults due to permissions restrictions
system.cpu.dtb.readAccesses                         0                       # DTB read accesses
system.cpu.dtb.writeAccesses                        0                       # DTB write accesses
system.cpu.dtb.instAccesses                         0                       # ITB inst accesses
system.cpu.dtb.hits                                 0                       # Total TLB (inst and data) hits
system.cpu.dtb.misses                               0                       # Total TLB (inst and data) misses
system.cpu.dtb.accesses                             0                       # Total TLB (inst and data) accesses
system.cpu.dtb.stage2_mmu.stage2_tlb.instHits            0                       # ITB inst hits
system.cpu.dtb.stage2_mmu.stage2_tlb.instMisses            0                       # ITB inst misses
system.cpu.dtb.stage2_mmu.stage2_tlb.readHits            0                       # DTB read hits
system.cpu.dtb.stage2_mmu.stage2_tlb.readMisses            0                       # DTB read misses
system.cpu.dtb.stage2_mmu.stage2_tlb.writeHits            0                       # DTB write hits
system.cpu.dtb.stage2_mmu.stage2_tlb.writeMisses            0                       # DTB write misses
system.cpu.dtb.stage2_mmu.stage2_tlb.inserts            0                       # Number of times an entry is inserted into the TLB
system.cpu.dtb.stage2_mmu.stage2_tlb.flushTlb            0                       # Number of times complete TLB was flushed
system.cpu.dtb.stage2_mmu.stage2_tlb.flushTlbMva            0                       # Number of times TLB was flushed by MVA
system.cpu.dtb.stage2_mmu.stage2_tlb.flushTlbMvaAsid            0                       # Number of times TLB was flushed by MVA & ASID
system.cpu.dtb.stage2_mmu.stage2_tlb.flushTlbAsid            0                       # Number of times TLB was flushed by ASID
system.cpu.dtb.stage2_mmu.stage2_tlb.flushedEntries            0                       # Number of entries that have been flushed from TLB
system.cpu.dtb.stage2_mmu.stage2_tlb.alignFaults            0                       # Number of TLB faults due to alignment restrictions
system.cpu.dtb.stage2_mmu.stage2_tlb.prefetchFaults            0                       # Number of TLB faults due to prefetch
system.cpu.dtb.stage2_mmu.stage2_tlb.domainFaults            0                       # Number of TLB faults due to domain restrictions
system.cpu.dtb.stage2_mmu.stage2_tlb.permsFaults            0                       # Number of TLB faults due to permissions restrictions
system.cpu.dtb.stage2_mmu.stage2_tlb.readAccesses            0                       # DTB read accesses
system.cpu.dtb.stage2_mmu.stage2_tlb.writeAccesses            0                       # DTB write accesses
system.cpu.dtb.stage2_mmu.stage2_tlb.instAccesses            0                       # ITB inst accesses
system.cpu.dtb.stage2_mmu.stage2_tlb.hits            0                       # Total TLB (inst and data) hits
system.cpu.dtb.stage2_mmu.stage2_tlb.misses            0                       # Total TLB (inst and data) misses
system.cpu.dtb.stage2_mmu.stage2_tlb.accesses            0                       # Total TLB (inst and data) accesses
system.cpu.dtb.stage2_mmu.stage2_tlb.walker.walks            0                       # Table walker walks requested
system.cpu.dtb.stage2_mmu.stage2_tlb.walker.requestOrigin_Requested::Data            0                       # Table walker requests started/completed, data/inst
system.cpu.dtb.stage2_mmu.stage2_tlb.walker.requestOrigin_Requested::Inst            0                       # Table walker requests started/completed, data/inst
system.cpu.dtb.stage2_mmu.stage2_tlb.walker.requestOrigin_Requested::total            0                       # Table walker requests started/completed, data/inst
system.cpu.dtb.stage2_mmu.stage2_tlb.walker.requestOrigin_Completed::Data            0                       # Table walker requests started/completed, data/inst
system.cpu.dtb.stage2_mmu.stage2_tlb.walker.requestOrigin_Completed::Inst            0                       # Table walker requests started/completed, data/inst
system.cpu.dtb.stage2_mmu.stage2_tlb.walker.requestOrigin_Completed::total            0                       # Table walker requests started/completed, data/inst
system.cpu.dtb.stage2_mmu.stage2_tlb.walker.requestOrigin::total            0                       # Table walker requests started/completed, data/inst
system.cpu.dtb.stage2_mmu.stage2_tlb.walker.power_state.pwrStateResidencyTicks::UNDEFINED  69564064000                       # Cumulative time (in ticks) in various power states
system.cpu.dtb.walker.walks                         0                       # Table walker walks requested
system.cpu.dtb.walker.requestOrigin_Requested::Data            0                       # Table walker requests started/completed, data/inst
system.cpu.dtb.walker.requestOrigin_Requested::Inst            0                       # Table walker requests started/completed, data/inst
system.cpu.dtb.walker.requestOrigin_Requested::total            0                       # Table walker requests started/completed, data/inst
system.cpu.dtb.walker.requestOrigin_Completed::Data            0                       # Table walker requests started/completed, data/inst
system.cpu.dtb.walker.requestOrigin_Completed::Inst            0                       # Table walker requests started/completed, data/inst
system.cpu.dtb.walker.requestOrigin_Completed::total            0                       # Table walker requests started/completed, data/inst
system.cpu.dtb.walker.requestOrigin::total            0                       # Table walker requests started/completed, data/inst
system.cpu.dtb.walker.power_state.pwrStateResidencyTicks::UNDEFINED  69564064000                       # Cumulative time (in ticks) in various power states
system.cpu.fetch2.intInstructions            37725300                       # Number of integer instructions successfully decoded
system.cpu.fetch2.fpInstructions                    0                       # Number of floating point instructions successfully decoded
system.cpu.fetch2.vecInstructions                   0                       # Number of SIMD instructions successfully decoded
system.cpu.fetch2.loadInstructions           17245490                       # Number of memory load instructions successfully decoded
system.cpu.fetch2.storeInstructions          14150951                       # Number of memory store instructions successfully decoded
system.cpu.fetch2.amoInstructions                   0                       # Number of memory atomic instructions successfully decoded
system.cpu.icache.demand_hits::.cpu.inst     13678373                       # number of demand (read+write) hits
system.cpu.icache.demand_hits::total         13678373                       # number of demand (read+write) hits
system.cpu.icache.overall_hits::.cpu.inst     13678373                       # number of overall hits
system.cpu.icache.overall_hits::total        13678373                       # number of overall hits
system.cpu.icache.demand_misses::.cpu.inst         3743                       # number of demand (read+write) misses
system.cpu.icache.demand_misses::total           3743                       # number of demand (read+write) misses
system.cpu.icache.overall_misses::.cpu.inst         3743                       # number of overall misses
system.cpu.icache.overall_misses::total          3743                       # number of overall misses
system.cpu.icache.demand_miss_latency::.cpu.inst    102490500                       # number of demand (read+write) miss cycles
system.cpu.icache.demand_miss_latency::total    102490500                       # number of demand (read+write) miss cycles
system.cpu.icache.overall_miss_latency::.cpu.inst    102490500                       # number of overall miss cycles
system.cpu.icache.overall_miss_latency::total    102490500                       # number of overall miss cycles
system.cpu.icache.demand_accesses::.cpu.inst     13682116                       # number of demand (read+write) accesses
system.cpu.icache.demand_accesses::total     13682116                       # number of demand (read+write) accesses
system.cpu.icache.overall_accesses::.cpu.inst     13682116                       # number of overall (read+write) accesses
system.cpu.icache.overall_accesses::total     13682116                       # number of overall (read+write) accesses
system.cpu.icache.demand_miss_rate::.cpu.inst     0.000274                       # miss rate for demand accesses
system.cpu.icache.demand_miss_rate::total     0.000274                       # miss rate for demand accesses
system.cpu.icache.overall_miss_rate::.cpu.inst     0.000274                       # miss rate for overall accesses
system.cpu.icache.overall_miss_rate::total     0.000274                       # miss rate for overall accesses
system.cpu.icache.demand_avg_miss_latency::.cpu.inst 27381.912904                       # average overall miss latency
system.cpu.icache.demand_avg_miss_latency::total 27381.912904                       # average overall miss latency
system.cpu.icache.overall_avg_miss_latency::.cpu.inst 27381.912904                       # average overall miss latency
system.cpu.icache.overall_avg_miss_latency::total 27381.912904                       # average overall miss latency
system.cpu.icache.blocked_cycles::no_mshrs            0                       # number of cycles access was blocked
system.cpu.icache.blocked_cycles::no_targets            0                       # number of cycles access was blocked
system.cpu.icache.blocked::no_mshrs                 0                       # number of cycles access was blocked
system.cpu.icache.blocked::no_targets               0                       # number of cycles access was blocked
system.cpu.icache.avg_blocked_cycles::no_mshrs          nan                       # average number of cycles each access was blocked
system.cpu.icache.avg_blocked_cycles::no_targets          nan                       # average number of cycles each access was blocked
system.cpu.icache.writebacks::.writebacks         3499                       # number of writebacks
system.cpu.icache.writebacks::total              3499                       # number of writebacks
system.cpu.icache.demand_mshr_misses::.cpu.inst         3743                       # number of demand (read+write) MSHR misses
system.cpu.icache.demand_mshr_misses::total         3743                       # number of demand (read+write) MSHR misses
system.cpu.icache.overall_mshr_misses::.cpu.inst         3743                       # number of overall MSHR misses
system.cpu.icache.overall_mshr_misses::total         3743                       # number of overall MSHR misses
system.cpu.icache.demand_mshr_miss_latency::.cpu.inst     98747500                       # number of demand (read+write) MSHR miss cycles
system.cpu.icache.demand_mshr_miss_latency::total     98747500                       # number of demand (read+write) MSHR miss cycles
system.cpu.icache.overall_mshr_miss_latency::.cpu.inst     98747500                       # number of overall MSHR miss cycles
system.cpu.icache.overall_mshr_miss_latency::total     98747500                       # number of overall MSHR miss cycles
system.cpu.icache.demand_mshr_miss_rate::.cpu.inst     0.000274                       # mshr miss rate for demand accesses
system.cpu.icache.demand_mshr_miss_rate::total     0.000274                       # mshr miss rate for demand accesses
system.cpu.icache.overall_mshr_miss_rate::.cpu.inst     0.000274                       # mshr miss rate for overall accesses
system.cpu.icache.overall_mshr_miss_rate::total     0.000274                       # mshr miss rate for overall accesses
system.cpu.icache.demand_avg_mshr_miss_latency::.cpu.inst 26381.912904                       # average overall mshr miss latency
system.cpu.icache.demand_avg_mshr_miss_latency::total 26381.912904                       # average overall mshr miss latency
system.cpu.icache.overall_avg_mshr_miss_latency::.cpu.inst 26381.912904                       # average overall mshr miss latency
system.cpu.icache.overall_avg_mshr_miss_latency::total 26381.912904                       # average overall mshr miss latency
system.cpu.icache.replacements                   3499                       # number of replacements
system.cpu.icache.ReadReq_hits::.cpu.inst     13678373                       # number of ReadReq hits
system.cpu.icache.ReadReq_hits::total        13678373                       # number of ReadReq hits
system.cpu.icache.ReadReq_misses::.cpu.inst         3743                       # number of ReadReq misses
system.cpu.icache.ReadReq_misses::total          3743                       # number of ReadReq misses
system.cpu.icache.ReadReq_miss_latency::.cpu.inst    102490500                       # number of ReadReq miss cycles
system.cpu.icache.ReadReq_miss_latency::total    102490500                       # number of ReadReq miss cycles
system.cpu.icache.ReadReq_accesses::.cpu.inst     13682116                       # number of ReadReq accesses(hits+misses)
system.cpu.icache.ReadReq_accesses::total     13682116                       # number of ReadReq accesses(hits+misses)
system.cpu.icache.ReadReq_miss_rate::.cpu.inst     0.000274                       # miss rate for ReadReq accesses
system.cpu.icache.ReadReq_miss_rate::total     0.000274                       # miss rate for ReadReq accesses
system.cpu.icache.ReadReq_avg_miss_latency::.cpu.inst 27381.912904                       # average ReadReq miss latency
system.cpu.icache.ReadReq_avg_miss_latency::total 27381.912904                       # average ReadReq miss latency
system.cpu.icache.ReadReq_mshr_misses::.cpu.inst         3743                       # number of ReadReq MSHR misses
system.cpu.icache.ReadReq_mshr_misses::total         3743                       # number of ReadReq MSHR misses
system.cpu.icache.ReadReq_mshr_miss_latency::.cpu.inst     98747500                       # number of ReadReq MSHR miss cycles
system.cpu.icache.ReadReq_mshr_miss_latency::total     98747500                       # number of ReadReq MSHR miss cycles
system.cpu.icache.ReadReq_mshr_miss_rate::.cpu.inst     0.000274                       # mshr miss rate for ReadReq accesses
system.cpu.icache.ReadReq_mshr_miss_rate::total     0.000274                       # mshr miss rate for ReadReq accesses
system.cpu.icache.ReadReq_avg_mshr_miss_latency::.cpu.inst 26381.912904                       # average ReadReq mshr miss latency
system.cpu.icache.ReadReq_avg_mshr_miss_latency::total 26381.912904                       # average ReadReq mshr miss latency
system.cpu.icache.power_state.pwrStateResidencyTicks::UNDEFINED  69564064000                       # Cumulative time (in ticks) in various power states
system.cpu.icache.tags.tagsinuse           243.899514                       # Cycle average of tags in use
system.cpu.icache.tags.total_refs            13682116                       # Total number of references to valid blocks.
system.cpu.icache.tags.sampled_refs              3743                       # Sample count of references to valid blocks.
system.cpu.icache.tags.avg_refs           3655.387657                       # Average number of references to valid blocks.
system.cpu.icache.tags.warmup_cycle             92500                       # Cycle when the warmup percentage was hit.
system.cpu.icache.tags.occ_blocks::.cpu.inst   243.899514                       # Average occupied blocks per requestor
system.cpu.icache.tags.occ_percent::.cpu.inst     0.952732                       # Average percentage of cache occupancy
system.cpu.icache.tags.occ_percent::total     0.952732                       # Average percentage of cache occupancy
system.cpu.icache.tags.occ_task_id_blocks::1024          244                       # Occupied blocks per task id
system.cpu.icache.tags.age_task_id_blocks_1024::3           12                       # Occupied blocks per task id
system.cpu.icache.tags.age_task_id_blocks_1024::4          232                       # Occupied blocks per task id
system.cpu.icache.tags.occ_task_id_percent::1024     0.953125                       # Percentage of cache occupancy per task id
system.cpu.icache.tags.tag_accesses          27367975                       # Number of tag accesses
system.cpu.icache.tags.data_accesses         27367975                       # Number of data accesses
system.cpu.icache.tags.power_state.pwrStateResidencyTicks::UNDEFINED  69564064000                       # Cumulative time (in ticks) in various power states
system.cpu.itb.instHits                             0                       # ITB inst hits
system.cpu.itb.instMisses                           0                       # ITB inst misses
system.cpu.itb.readHits                             0                       # DTB read hits
system.cpu.itb.readMisses                           0                       # DTB read misses
system.cpu.itb.writeHits                            0                       # DTB write hits
system.cpu.itb.writeMisses                          0                       # DTB write misses
system.cpu.itb.inserts                              0                       # Number of times an entry is inserted into the TLB
system.cpu.itb.flushTlb                             0                       # Number of times complete TLB was flushed
system.cpu.itb.flushTlbMva                          0                       # Number of times TLB was flushed by MVA
system.cpu.itb.flushTlbMvaAsid                      0                       # Number of times TLB was flushed by MVA & ASID
system.cpu.itb.flushTlbAsid                         0                       # Number of times TLB was flushed by ASID
system.cpu.itb.flushedEntries                       0                       # Number of entries that have been flushed from TLB
system.cpu.itb.alignFaults                          0                       # Number of TLB faults due to alignment restrictions
system.cpu.itb.prefetchFaults                       0                       # Number of TLB faults due to prefetch
system.cpu.itb.domainFaults                         0                       # Number of TLB faults due to domain restrictions
system.cpu.itb.permsFaults                          0                       # Number of TLB faults due to permissions restrictions
system.cpu.itb.readAccesses                         0                       # DTB read accesses
system.cpu.itb.writeAccesses                        0                       # DTB write accesses
system.cpu.itb.instAccesses                         0                       # ITB inst accesses
system.cpu.itb.hits                                 0                       # Total TLB (inst and data) hits
system.cpu.itb.misses                               0                       # Total TLB (inst and data) misses
system.cpu.itb.accesses                             0                       # Total TLB (inst and data) accesses
system.cpu.itb.stage2_mmu.stage2_tlb.instHits            0                       # ITB inst hits
system.cpu.itb.stage2_mmu.stage2_tlb.instMisses            0                       # ITB inst misses
system.cpu.itb.stage2_mmu.stage2_tlb.readHits            0                       # DTB read hits
system.cpu.itb.stage2_mmu.stage2_tlb.readMisses            0                       # DTB read misses
system.cpu.itb.stage2_mmu.stage2_tlb.writeHits            0                       # DTB write hits
system.cpu.itb.stage2_mmu.stage2_tlb.writeMisses            0                       # DTB write misses
system.cpu.itb.stage2_mmu.stage2_tlb.inserts            0                       # Number of times an entry is inserted into the TLB
system.cpu.itb.stage2_mmu.stage2_tlb.flushTlb            0                       # Number of times complete TLB was flushed
system.cpu.itb.stage2_mmu.stage2_tlb.flushTlbMva            0                       # Number of times TLB was flushed by MVA
system.cpu.itb.stage2_mmu.stage2_tlb.flushTlbMvaAsid            0                       # Number of times TLB was flushed by MVA & ASID
system.cpu.itb.stage2_mmu.stage2_tlb.flushTlbAsid            0                       # Number of times TLB was flushed by ASID
system.cpu.itb.stage2_mmu.stage2_tlb.flushedEntries            0                       # Number of entries that have been flushed from TLB
system.cpu.itb.stage2_mmu.stage2_tlb.alignFaults            0                       # Number of TLB faults due to alignment restrictions
system.cpu.itb.stage2_mmu.stage2_tlb.prefetchFaults            0                       # Number of TLB faults due to prefetch
system.cpu.itb.stage2_mmu.stage2_tlb.domainFaults            0                       # Number of TLB faults due to domain restrictions
system.cpu.itb.stage2_mmu.stage2_tlb.permsFaults            0                       # Number of TLB faults due to permissions restrictions
system.cpu.itb.stage2_mmu.stage2_tlb.readAccesses            0                       # DTB read accesses
system.cpu.itb.stage2_mmu.stage2_tlb.writeAccesses            0                       # DTB write accesses
system.cpu.itb.stage2_mmu.stage2_tlb.instAccesses            0                       # ITB inst accesses
system.cpu.itb.stage2_mmu.stage2_tlb.hits            0                       # Total TLB (inst and data) hits
system.cpu.itb.stage2_mmu.stage2_tlb.misses            0                       # Total TLB (inst and data) misses
system.cpu.itb.stage2_mmu.stage2_tlb.accesses            0                       # Total TLB (inst and data) accesses
system.cpu.itb.stage2_mmu.stage2_tlb.walker.walks            0                       # Table walker walks requested
system.cpu.itb.stage2_mmu.stage2_tlb.walker.requestOrigin_Requested::Data            0                       # Table walker requests started/completed, data/inst
system.cpu.itb.stage2_mmu.stage2_tlb.walker.requestOrigin_Requested::Inst            0                       # Table walker requests started/completed, data/inst
system.cpu.itb.stage2_mmu.stage2_tlb.walker.requestOrigin_Requested::total            0                       # Table walker requests started/completed, data/inst
system.cpu.itb.stage2_mmu.stage2_tlb.walker.requestOrigin_Completed::Data            0                       # Table walker requests started/completed, data/inst
system.cpu.itb.stage2_mmu.stage2_tlb.walker.requestOrigin_Completed::Inst            0                       # Table walker requests started/completed, data/inst
system.cpu.itb.stage2_mmu.stage2_tlb.walker.requestOrigin_Completed::total            0                       # Table walker requests started/completed, data/inst
system.cpu.itb.stage2_mmu.stage2_tlb.walker.requestOrigin::total            0                       # Table walker requests started/completed, data/inst
system.cpu.itb.stage2_mmu.stage2_tlb.walker.power_state.pwrStateResidencyTicks::UNDEFINED  69564064000                       # Cumulative time (in ticks) in various power states
system.cpu.itb.walker.walks                         0                       # Table walker walks requested
system.cpu.itb.walker.requestOrigin_Requested::Data            0                       # Table walker requests started/completed, data/inst
system.cpu.itb.walker.requestOrigin_Requested::Inst            0                       # Table walker requests started/completed, data/inst
system.cpu.itb.walker.requestOrigin_Requested::total            0                       # Table walker requests started/completed, data/inst
system.cpu.itb.walker.requestOrigin_Completed::Data            0                       # Table walker requests started/completed, data/inst
system.cpu.itb.walker.requestOrigin_Completed::Inst            0                       # Table walker requests started/completed, data/inst
system.cpu.itb.walker.requestOrigin_Completed::total            0                       # Table walker requests started/completed, data/inst
system.cpu.itb.walker.requestOrigin::total            0                       # Table walker requests started/completed, data/inst
system.cpu.itb.walker.power_state.pwrStateResidencyTicks::UNDEFINED  69564064000                       # Cumulative time (in ticks) in various power states
system.cpu.power_state.pwrStateResidencyTicks::ON  69564064000                       # Cumulative time (in ticks) in various power states
system.cpu.thread0.numInsts                 100000000                       # Number of Instructions committed
system.cpu.thread0.numOps                   116826593                       # Number of Ops committed
system.cpu.thread0.numMemRefs                       0                       # Number of Memory References
system.cpu_clk_domain.clock                       500                       # Clock period in ticks
system.cpu_voltage_domain.voltage                   1                       # Voltage in Volts
system.l2.demand_hits::.cpu.inst                 3011                       # number of demand (read+write) hits
system.l2.demand_hits::.cpu.data                97313                       # number of demand (read+write) hits
system.l2.demand_hits::total                   100324                       # number of demand (read+write) hits
system.l2.overall_hits::.cpu.inst                3011                       # number of overall hits
system.l2.overall_hits::.cpu.data               97313                       # number of overall hits
system.l2.overall_hits::total                  100324                       # number of overall hits
system.l2.demand_misses::.cpu.inst                732                       # number of demand (read+write) misses
system.l2.demand_misses::.cpu.data               2311                       # number of demand (read+write) misses
system.l2.demand_misses::total                   3043                       # number of demand (read+write) misses
system.l2.overall_misses::.cpu.inst               732                       # number of overall misses
system.l2.overall_misses::.cpu.data              2311                       # number of overall misses
system.l2.overall_misses::total                  3043                       # number of overall misses
system.l2.demand_miss_latency::.cpu.inst     60520500                       # number of demand (read+write) miss cycles
system.l2.demand_miss_latency::.cpu.data    193084000                       # number of demand (read+write) miss cycles
system.l2.demand_miss_latency::total        253604500                       # number of demand (read+write) miss cycles
system.l2.overall_miss_latency::.cpu.inst     60520500                       # number of overall miss cycles
system.l2.overall_miss_latency::.cpu.data    193084000                       # number of overall miss cycles
system.l2.overall_miss_latency::total       253604500                       # number of overall miss cycles
system.l2.demand_accesses::.cpu.inst             3743                       # number of demand (read+write) accesses
system.l2.demand_accesses::.cpu.data            99624                       # number of demand (read+write) accesses
system.l2.demand_accesses::total               103367                       # number of demand (read+write) accesses
system.l2.overall_accesses::.cpu.inst            3743                       # number of overall (read+write) accesses
system.l2.overall_accesses::.cpu.data           99624                       # number of overall (read+write) accesses
system.l2.overall_accesses::total              103367                       # number of overall (read+write) accesses
system.l2.demand_miss_rate::.cpu.inst        0.195565                       # miss rate for demand accesses
system.l2.demand_miss_rate::.cpu.data        0.023197                       # miss rate for demand accesses
system.l2.demand_miss_rate::total            0.029439                       # miss rate for demand accesses
system.l2.overall_miss_rate::.cpu.inst       0.195565                       # miss rate for overall accesses
system.l2.overall_miss_rate::.cpu.data       0.023197                       # miss rate for overall accesses
system.l2.overall_miss_rate::total           0.029439                       # miss rate for overall accesses
system.l2.demand_avg_miss_latency::.cpu.inst 82678.278689                       # average overall miss latency
system.l2.demand_avg_miss_latency::.cpu.data 83549.978364                       # average overall miss latency
system.l2.demand_avg_miss_latency::total 83340.289188                       # average overall miss latency
system.l2.overall_avg_miss_latency::.cpu.inst 82678.278689                       # average overall miss latency
system.l2.overall_avg_miss_latency::.cpu.data 83549.978364                       # average overall miss latency
system.l2.overall_avg_miss_latency::total 83340.289188                       # average overall miss latency
system.l2.blocked_cycles::no_mshrs                  0                       # number of cycles access was blocked
system.l2.blocked_cycles::no_targets                0                       # number of cycles access was blocked
system.l2.blocked::no_mshrs                         0                       # number of cycles access was blocked
system.l2.blocked::no_targets                       0                       # number of cycles access was blocked
system.l2.avg_blocked_cycles::no_mshrs            nan                       # average number of cycles each access was blocked
system.l2.avg_blocked_cycles::no_targets          nan                       # average number of cycles each access was blocked
system.l2.demand_mshr_hits::.cpu.inst               2                       # number of demand (read+write) MSHR hits
system.l2.demand_mshr_hits::.cpu.data              16                       # number of demand (read+write) MSHR hits
system.l2.demand_mshr_hits::total                  18                       # number of demand (read+write) MSHR hits
system.l2.overall_mshr_hits::.cpu.inst              2                       # number of overall MSHR hits
system.l2.overall_mshr_hits::.cpu.data             16                       # number of overall MSHR hits
system.l2.overall_mshr_hits::total                 18                       # number of overall MSHR hits
system.l2.demand_mshr_misses::.cpu.inst           730                       # number of demand (read+write) MSHR misses
system.l2.demand_mshr_misses::.cpu.data          2295                       # number of demand (read+write) MSHR misses
system.l2.demand_mshr_misses::total              3025                       # number of demand (read+write) MSHR misses
system.l2.overall_mshr_misses::.cpu.inst          730                       # number of overall MSHR misses
system.l2.overall_mshr_misses::.cpu.data         2295                       # number of overall MSHR misses
system.l2.overall_mshr_misses::total             3025                       # number of overall MSHR misses
system.l2.demand_mshr_miss_latency::.cpu.inst     53179500                       # number of demand (read+write) MSHR miss cycles
system.l2.demand_mshr_miss_latency::.cpu.data    168988000                       # number of demand (read+write) MSHR miss cycles
system.l2.demand_mshr_miss_latency::total    222167500                       # number of demand (read+write) MSHR miss cycles
system.l2.overall_mshr_miss_latency::.cpu.inst     53179500                       # number of overall MSHR miss cycles
system.l2.overall_mshr_miss_latency::.cpu.data    168988000                       # number of overall MSHR miss cycles
system.l2.overall_mshr_miss_latency::total    222167500                       # number of overall MSHR miss cycles
system.l2.demand_mshr_miss_rate::.cpu.inst     0.195031                       # mshr miss rate for demand accesses
system.l2.demand_mshr_miss_rate::.cpu.data     0.023037                       # mshr miss rate for demand accesses
system.l2.demand_mshr_miss_rate::total       0.029265                       # mshr miss rate for demand accesses
system.l2.overall_mshr_miss_rate::.cpu.inst     0.195031                       # mshr miss rate for overall accesses
system.l2.overall_mshr_miss_rate::.cpu.data     0.023037                       # mshr miss rate for overall accesses
system.l2.overall_mshr_miss_rate::total      0.029265                       # mshr miss rate for overall accesses
system.l2.demand_avg_mshr_miss_latency::.cpu.inst 72848.630137                       # average overall mshr miss latency
system.l2.demand_avg_mshr_miss_latency::.cpu.data 73633.115468                       # average overall mshr miss latency
system.l2.demand_avg_mshr_miss_latency::total 73443.801653                       # average overall mshr miss latency
system.l2.overall_avg_mshr_miss_latency::.cpu.inst 72848.630137                       # average overall mshr miss latency
system.l2.overall_avg_mshr_miss_latency::.cpu.data 73633.115468                       # average overall mshr miss latency
system.l2.overall_avg_mshr_miss_latency::total 73443.801653                       # average overall mshr miss latency
system.l2.replacements                              0                       # number of replacements
system.l2.WritebackDirty_hits::.writebacks        96204                       # number of WritebackDirty hits
system.l2.WritebackDirty_hits::total            96204                       # number of WritebackDirty hits
system.l2.WritebackDirty_accesses::.writebacks        96204                       # number of WritebackDirty accesses(hits+misses)
system.l2.WritebackDirty_accesses::total        96204                       # number of WritebackDirty accesses(hits+misses)
system.l2.WritebackClean_hits::.writebacks         2908                       # number of WritebackClean hits
system.l2.WritebackClean_hits::total             2908                       # number of WritebackClean hits
system.l2.WritebackClean_accesses::.writebacks         2908                       # number of WritebackClean accesses(hits+misses)
system.l2.WritebackClean_accesses::total         2908                       # number of WritebackClean accesses(hits+misses)
system.l2.ReadExReq_hits::.cpu.data             71046                       # number of ReadExReq hits
system.l2.ReadExReq_hits::total                 71046                       # number of ReadExReq hits
system.l2.ReadExReq_misses::.cpu.data            1856                       # number of ReadExReq misses
system.l2.ReadExReq_misses::total                1856                       # number of ReadExReq misses
system.l2.ReadExReq_miss_latency::.cpu.data    153383000                       # number of ReadExReq miss cycles
system.l2.ReadExReq_miss_latency::total     153383000                       # number of ReadExReq miss cycles
system.l2.ReadExReq_accesses::.cpu.data         72902                       # number of ReadExReq accesses(hits+misses)
system.l2.ReadExReq_accesses::total             72902                       # number of ReadExReq accesses(hits+misses)
system.l2.ReadExReq_miss_rate::.cpu.data     0.025459                       # miss rate for ReadExReq accesses
system.l2.ReadExReq_miss_rate::total         0.025459                       # miss rate for ReadExReq accesses
system.l2.ReadExReq_avg_miss_latency::.cpu.data 82641.702586                       # average ReadExReq miss latency
system.l2.ReadExReq_avg_miss_latency::total 82641.702586                       # average ReadExReq miss latency
system.l2.ReadExReq_mshr_misses::.cpu.data         1856                       # number of ReadExReq MSHR misses
system.l2.ReadExReq_mshr_misses::total           1856                       # number of ReadExReq MSHR misses
system.l2.ReadExReq_mshr_miss_latency::.cpu.data    134823000                       # number of ReadExReq MSHR miss cycles
system.l2.ReadExReq_mshr_miss_latency::total    134823000                       # number of ReadExReq MSHR miss cycles
system.l2.ReadExReq_mshr_miss_rate::.cpu.data     0.025459                       # mshr miss rate for ReadExReq accesses
system.l2.ReadExReq_mshr_miss_rate::total     0.025459                       # mshr miss rate for ReadExReq accesses
system.l2.ReadExReq_avg_mshr_miss_latency::.cpu.data 72641.702586                       # average ReadExReq mshr miss latency
system.l2.ReadExReq_avg_mshr_miss_latency::total 72641.702586                       # average ReadExReq mshr miss latency
system.l2.ReadCleanReq_hits::.cpu.inst           3011                       # number of ReadCleanReq hits
system.l2.ReadCleanReq_hits::total               3011                       # number of ReadCleanReq hits
system.l2.ReadCleanReq_misses::.cpu.inst          732                       # number of ReadCleanReq misses
system.l2.ReadCleanReq_misses::total              732                       # number of ReadCleanReq misses
system.l2.ReadCleanReq_miss_latency::.cpu.inst     60520500                       # number of ReadCleanReq miss cycles
system.l2.ReadCleanReq_miss_latency::total     60520500                       # number of ReadCleanReq miss cycles
system.l2.ReadCleanReq_accesses::.cpu.inst         3743                       # number of ReadCleanReq accesses(hits+misses)
system.l2.ReadCleanReq_accesses::total           3743                       # number of ReadCleanReq accesses(hits+misses)
system.l2.ReadCleanReq_miss_rate::.cpu.inst     0.195565                       # miss rate for ReadCleanReq accesses
system.l2.ReadCleanReq_miss_rate::total      0.195565                       # miss rate for ReadCleanReq accesses
system.l2.ReadCleanReq_avg_miss_latency::.cpu.inst 82678.278689                       # average ReadCleanReq miss latency
system.l2.ReadCleanReq_avg_miss_latency::total 82678.278689                       # average ReadCleanReq miss latency
system.l2.ReadCleanReq_mshr_hits::.cpu.inst            2                       # number of ReadCleanReq MSHR hits
system.l2.ReadCleanReq_mshr_hits::total             2                       # number of ReadCleanReq MSHR hits
system.l2.ReadCleanReq_mshr_misses::.cpu.inst          730                       # number of ReadCleanReq MSHR misses
system.l2.ReadCleanReq_mshr_misses::total          730                       # number of ReadCleanReq MSHR misses
system.l2.ReadCleanReq_mshr_miss_latency::.cpu.inst     53179500                       # number of ReadCleanReq MSHR miss cycles
system.l2.ReadCleanReq_mshr_miss_latency::total     53179500                       # number of ReadCleanReq MSHR miss cycles
system.l2.ReadCleanReq_mshr_miss_rate::.cpu.inst     0.195031                       # mshr miss rate for ReadCleanReq accesses
system.l2.ReadCleanReq_mshr_miss_rate::total     0.195031                       # mshr miss rate for ReadCleanReq accesses
system.l2.ReadCleanReq_avg_mshr_miss_latency::.cpu.inst 72848.630137                       # average ReadCleanReq mshr miss latency
system.l2.ReadCleanReq_avg_mshr_miss_latency::total 72848.630137                       # average ReadCleanReq mshr miss latency
system.l2.ReadSharedReq_hits::.cpu.data         26267                       # number of ReadSharedReq hits
system.l2.ReadSharedReq_hits::total             26267                       # number of ReadSharedReq hits
system.l2.ReadSharedReq_misses::.cpu.data          455                       # number of ReadSharedReq misses
system.l2.ReadSharedReq_misses::total             455                       # number of ReadSharedReq misses
system.l2.ReadSharedReq_miss_latency::.cpu.data     39701000                       # number of ReadSharedReq miss cycles
system.l2.ReadSharedReq_miss_latency::total     39701000                       # number of ReadSharedReq miss cycles
system.l2.ReadSharedReq_accesses::.cpu.data        26722                       # number of ReadSharedReq accesses(hits+misses)
system.l2.ReadSharedReq_accesses::total         26722                       # number of ReadSharedReq accesses(hits+misses)
system.l2.ReadSharedReq_miss_rate::.cpu.data     0.017027                       # miss rate for ReadSharedReq accesses
system.l2.ReadSharedReq_miss_rate::total     0.017027                       # miss rate for ReadSharedReq accesses
system.l2.ReadSharedReq_avg_miss_latency::.cpu.data 87254.945055                       # average ReadSharedReq miss latency
system.l2.ReadSharedReq_avg_miss_latency::total 87254.945055                       # average ReadSharedReq miss latency
system.l2.ReadSharedReq_mshr_hits::.cpu.data           16                       # number of ReadSharedReq MSHR hits
system.l2.ReadSharedReq_mshr_hits::total           16                       # number of ReadSharedReq MSHR hits
system.l2.ReadSharedReq_mshr_misses::.cpu.data          439                       # number of ReadSharedReq MSHR misses
system.l2.ReadSharedReq_mshr_misses::total          439                       # number of ReadSharedReq MSHR misses
system.l2.ReadSharedReq_mshr_miss_latency::.cpu.data     34165000                       # number of ReadSharedReq MSHR miss cycles
system.l2.ReadSharedReq_mshr_miss_latency::total     34165000                       # number of ReadSharedReq MSHR miss cycles
system.l2.ReadSharedReq_mshr_miss_rate::.cpu.data     0.016428                       # mshr miss rate for ReadSharedReq accesses
system.l2.ReadSharedReq_mshr_miss_rate::total     0.016428                       # mshr miss rate for ReadSharedReq accesses
system.l2.ReadSharedReq_avg_mshr_miss_latency::.cpu.data 77824.601367                       # average ReadSharedReq mshr miss latency
system.l2.ReadSharedReq_avg_mshr_miss_latency::total 77824.601367                       # average ReadSharedReq mshr miss latency
system.l2.power_state.pwrStateResidencyTicks::UNDEFINED  69564064000                       # Cumulative time (in ticks) in various power states
system.l2.tags.tagsinuse                  2976.482564                       # Cycle average of tags in use
system.l2.tags.total_refs                      203764                       # Total number of references to valid blocks.
system.l2.tags.sampled_refs                      3025                       # Sample count of references to valid blocks.
system.l2.tags.avg_refs                     67.360000                       # Average number of references to valid blocks.
system.l2.tags.warmup_cycle                     82000                       # Cycle when the warmup percentage was hit.
system.l2.tags.occ_blocks::.cpu.inst       728.350912                       # Average occupied blocks per requestor
system.l2.tags.occ_blocks::.cpu.data      2248.131652                       # Average occupied blocks per requestor
system.l2.tags.occ_percent::.cpu.inst        0.044455                       # Average percentage of cache occupancy
system.l2.tags.occ_percent::.cpu.data        0.137215                       # Average percentage of cache occupancy
system.l2.tags.occ_percent::total            0.181670                       # Average percentage of cache occupancy
system.l2.tags.occ_task_id_blocks::1024          3025                       # Occupied blocks per task id
system.l2.tags.age_task_id_blocks_1024::4         3025                       # Occupied blocks per task id
system.l2.tags.occ_task_id_percent::1024     0.184631                       # Percentage of cache occupancy per task id
system.l2.tags.tag_accesses                   1633281                       # Number of tag accesses
system.l2.tags.data_accesses                  1633281                       # Number of data accesses
system.l2.tags.power_state.pwrStateResidencyTicks::UNDEFINED  69564064000                       # Cumulative time (in ticks) in various power states
system.mem_ctrls.avgPriority_.cpu.inst::samples      1460.00                       # Average QoS priority value for accepted requests
system.mem_ctrls.avgPriority_.cpu.data::samples      4590.00                       # Average QoS priority value for accepted requests
system.mem_ctrls.priorityMinLatency      0.000000018750                       # per QoS priority minimum request to response latency (s)
system.mem_ctrls.priorityMaxLatency      0.000000577500                       # per QoS priority maximum request to response latency (s)
system.mem_ctrls.numReadWriteTurnArounds            0                       # Number of turnarounds from READ to WRITE
system.mem_ctrls.numWriteReadTurnArounds            0                       # Number of turnarounds from WRITE to READ
system.mem_ctrls.numStayReadState               26932                       # Number of times bus staying in READ state
system.mem_ctrls.numStayWriteState                  0                       # Number of times bus staying in WRITE state
system.mem_ctrls.readReqs                        3025                       # Number of read requests accepted
system.mem_ctrls.writeReqs                          0                       # Number of write requests accepted
system.mem_ctrls.readBursts                      6050                       # Number of controller read bursts, including those serviced by the write queue
system.mem_ctrls.writeBursts                        0                       # Number of controller write bursts, including those merged in the write queue
system.mem_ctrls.servicedByWrQ                      0                       # Number of controller read bursts serviced by the write queue
system.mem_ctrls.mergedWrBursts                     0                       # Number of controller write bursts merged with an existing one
system.mem_ctrls.neitherReadNorWriteReqs            0                       # Number of requests that are neither read nor write
system.mem_ctrls.avgRdQLen                       2.00                       # Average read queue length when enqueuing
system.mem_ctrls.avgWrQLen                       0.00                       # Average write queue length when enqueuing
system.mem_ctrls.numRdRetry                         0                       # Number of times read queue was full causing retry
system.mem_ctrls.numWrRetry                         0                       # Number of times write queue was full causing retry
system.mem_ctrls.readPktSize::0                     0                       # Read request sizes (log2)
system.mem_ctrls.readPktSize::1                     0                       # Read request sizes (log2)
system.mem_ctrls.readPktSize::2                     0                       # Read request sizes (log2)
system.mem_ctrls.readPktSize::3                     0                       # Read request sizes (log2)
system.mem_ctrls.readPktSize::4                     0                       # Read request sizes (log2)
system.mem_ctrls.readPktSize::5                     0                       # Read request sizes (log2)
system.mem_ctrls.readPktSize::6                  6050                       # Read request sizes (log2)
system.mem_ctrls.readPktSize::7                     0                       # Read request sizes (log2)
system.mem_ctrls.writePktSize::0                    0                       # Write request sizes (log2)
system.mem_ctrls.writePktSize::1                    0                       # Write request sizes (log2)
system.mem_ctrls.writePktSize::2                    0                       # Write request sizes (log2)
system.mem_ctrls.writePktSize::3                    0                       # Write request sizes (log2)
system.mem_ctrls.writePktSize::4                    0                       # Write request sizes (log2)
system.mem_ctrls.writePktSize::5                    0                       # Write request sizes (log2)
system.mem_ctrls.writePktSize::6                    0                       # Write request sizes (log2)
system.mem_ctrls.writePktSize::7                    0                       # Write request sizes (log2)
system.mem_ctrls.rdQLenPdf::0                    2803                       # What read queue length does an incoming req see
system.mem_ctrls.rdQLenPdf::1                    2806                       # What read queue length does an incoming req see
system.mem_ctrls.rdQLenPdf::2                     213                       # What read queue length does an incoming req see
system.mem_ctrls.rdQLenPdf::3                     211                       # What read queue length does an incoming req see
system.mem_ctrls.rdQLenPdf::4                       9                       # What read queue length does an incoming req see
system.mem_ctrls.rdQLenPdf::5                       8                       # What read queue length does an incoming req see
system.mem_ctrls.rdQLenPdf::6                       0                       # What read queue length does an incoming req see
system.mem_ctrls.rdQLenPdf::7                       0                       # What read queue length does an incoming req see
system.mem_ctrls.rdQLenPdf::8                       0                       # What read queue length does an incoming req see
system.mem_ctrls.rdQLenPdf::9                       0                       # What read queue length does an incoming req see
system.mem_ctrls.rdQLenPdf::10                      0                       # What read queue length does an incoming req see
system.mem_ctrls.rdQLenPdf::11                      0                       # What read queue length does an incoming req see
system.mem_ctrls.rdQLenPdf::12                      0                       # What read queue length does an incoming req see
[...]
system.mem_ctrls.dram.bw_read::.cpu.inst      1343222                       # Total read bandwidth from this memory (bytes/s)
system.mem_ctrls.dram.bw_read::.cpu.data      4222870                       # Total read bandwidth from this memory (bytes/s)
system.mem_ctrls.dram.bw_read::total          5566092                       # Total read bandwidth from this memory (bytes/s)
system.mem_ctrls.dram.bw_inst_read::.cpu.inst      1343222                       # Instruction read bandwidth from this memory (bytes/s)
system.mem_ctrls.dram.bw_inst_read::total      1343222                       # Instruction read bandwidth from this memory (bytes/s)
system.mem_ctrls.dram.bw_total::.cpu.inst      1343222                       # Total bandwidth to/from this memory (bytes/s)
system.mem_ctrls.dram.bw_total::.cpu.data      4222870                       # Total bandwidth to/from this memory (bytes/s)
system.mem_ctrls.dram.bw_total::total         5566092                       # Total bandwidth to/from this memory (bytes/s)
system.mem_ctrls.dram.readBursts                 6050                       # Number of DRAM read bursts
system.mem_ctrls.dram.writeBursts                   0                       # Number of DRAM write bursts
system.mem_ctrls.dram.perBankRdBursts::0          462                       # Per bank write bursts
system.mem_ctrls.dram.perBankRdBursts::1          430                       # Per bank write bursts
system.mem_ctrls.dram.perBankRdBursts::2          392                       # Per bank write bursts
system.mem_ctrls.dram.perBankRdBursts::3          350                       # Per bank write bursts
system.mem_ctrls.dram.perBankRdBursts::4          374                       # Per bank write bursts
system.mem_ctrls.dram.perBankRdBursts::5          314                       # Per bank write bursts
system.mem_ctrls.dram.perBankRdBursts::6          404                       # Per bank write bursts
system.mem_ctrls.dram.perBankRdBursts::7          390                       # Per bank write bursts
system.mem_ctrls.dram.perBankRdBursts::8          234                       # Per bank write bursts
system.mem_ctrls.dram.perBankRdBursts::9          348                       # Per bank write bursts
system.mem_ctrls.dram.perBankRdBursts::10          308                       # Per bank write bursts
system.mem_ctrls.dram.perBankRdBursts::11          372                       # Per bank write bursts
system.mem_ctrls.dram.perBankRdBursts::12          410                       # Per bank write bursts
system.mem_ctrls.dram.perBankRdBursts::13          450                       # Per bank write bursts
system.mem_ctrls.dram.perBankRdBursts::14          448                       # Per bank write bursts
system.mem_ctrls.dram.perBankRdBursts::15          364                       # Per bank write bursts
system.mem_ctrls.dram.perBankWrBursts::0            0                       # Per bank write bursts
system.mem_ctrls.dram.perBankWrBursts::1            0                       # Per bank write bursts
system.mem_ctrls.dram.perBankWrBursts::2            0                       # Per bank write bursts
system.mem_ctrls.dram.perBankWrBursts::3            0                       # Per bank write bursts
system.mem_ctrls.dram.perBankWrBursts::4            0                       # Per bank write bursts
system.mem_ctrls.dram.perBankWrBursts::5            0                       # Per bank write bursts
system.mem_ctrls.dram.perBankWrBursts::6            0                       # Per bank write bursts
system.mem_ctrls.dram.perBankWrBursts::7            0                       # Per bank write bursts
system.mem_ctrls.dram.perBankWrBursts::8            0                       # Per bank write bursts
system.mem_ctrls.dram.perBankWrBursts::9            0                       # Per bank write bursts
system.mem_ctrls.dram.perBankWrBursts::10            0                       # Per bank write bursts
system.mem_ctrls.dram.perBankWrBursts::11            0                       # Per bank write bursts
system.mem_ctrls.dram.perBankWrBursts::12            0                       # Per bank write bursts
system.mem_ctrls.dram.perBankWrBursts::13            0                       # Per bank write bursts
system.mem_ctrls.dram.perBankWrBursts::14            0                       # Per bank write bursts
system.mem_ctrls.dram.perBankWrBursts::15            0                       # Per bank write bursts
system.mem_ctrls.dram.totQLat                67222500                       # Total ticks spent queuing
system.mem_ctrls.dram.totBusLat              30250000                       # Total ticks spent in databus transfers
system.mem_ctrls.dram.totMemAccLat          180660000                       # Total ticks spent from burst creation until serviced by the DRAM
system.mem_ctrls.dram.avgQLat                11111.16                       # Average queueing delay per DRAM burst
system.mem_ctrls.dram.avgBusLat               5000.00                       # Average bus latency per DRAM burst
system.mem_ctrls.dram.avgMemAccLat           29861.16                       # Average memory access latency per DRAM burst
system.mem_ctrls.dram.readRowHits                5295                       # Number of row buffer hits during reads
system.mem_ctrls.dram.writeRowHits                  0                       # Number of row buffer hits during writes
system.mem_ctrls.dram.readRowHitRate            87.52                       # Row buffer hit rate for reads
system.mem_ctrls.dram.writeRowHitRate             nan                       # Row buffer hit rate for writes
system.mem_ctrls.dram.bytesPerActivate::samples          755                       # Bytes accessed per row activation
system.mem_ctrls.dram.bytesPerActivate::mean   512.847682                       # Bytes accessed per row activation
system.mem_ctrls.dram.bytesPerActivate::gmean   386.341357                       # Bytes accessed per row activation
system.mem_ctrls.dram.bytesPerActivate::stdev   348.739119                       # Bytes accessed per row activation
system.mem_ctrls.dram.bytesPerActivate::128-255          194     25.70%     25.70% # Bytes accessed per row activation
system.mem_ctrls.dram.bytesPerActivate::256-383          118     15.63%     41.32% # Bytes accessed per row activation
system.mem_ctrls.dram.bytesPerActivate::384-511           80     10.60%     51.92% # Bytes accessed per row activation
system.mem_ctrls.dram.bytesPerActivate::512-639           89     11.79%     63.71% # Bytes accessed per row activation
system.mem_ctrls.dram.bytesPerActivate::640-767           36      4.77%     68.48% # Bytes accessed per row activation
system.mem_ctrls.dram.bytesPerActivate::768-895           25      3.31%     71.79% # Bytes accessed per row activation
system.mem_ctrls.dram.bytesPerActivate::896-1023           35      4.64%     76.42% # Bytes accessed per row activation
system.mem_ctrls.dram.bytesPerActivate::1024-1151          178     23.58%    100.00% # Bytes accessed per row activation
system.mem_ctrls.dram.bytesPerActivate::total          755                       # Bytes accessed per row activation
system.mem_ctrls.dram.bytesRead                387200                       # Total number of bytes read from DRAM
system.mem_ctrls.dram.bytesWritten                  0                       # Total number of bytes written to DRAM
system.mem_ctrls.dram.avgRdBW                5.566092                       # Average DRAM read bandwidth in MiBytes/s
system.mem_ctrls.dram.avgWrBW                       0                       # Average DRAM write bandwidth in MiBytes/s
system.mem_ctrls.dram.peakBW                 12800.00                       # Theoretical peak bandwidth in MiByte/s
system.mem_ctrls.dram.busUtil                    0.04                       # Data bus utilization in percentage
system.mem_ctrls.dram.busUtilRead                0.04                       # Data bus utilization in percentage for reads
system.mem_ctrls.dram.busUtilWrite               0.00                       # Data bus utilization in percentage for writes
system.mem_ctrls.dram.pageHitRate               87.52                       # Row buffer hit rate, read and write combined
system.mem_ctrls.dram.power_state.pwrStateResidencyTicks::UNDEFINED  69564064000                       # Cumulative time (in ticks) in various power states
system.mem_ctrls.dram.rank0.actEnergy         2927400                       # Energy for activate commands per rank (pJ)
system.mem_ctrls.dram.rank0.preEnergy         1555950                       # Energy for precharge commands per rank (pJ)
system.mem_ctrls.dram.rank0.readEnergy       22248240                       # Energy for read commands per rank (pJ)
system.mem_ctrls.dram.rank0.writeEnergy             0                       # Energy for write commands per rank (pJ)
system.mem_ctrls.dram.rank0.refreshEnergy 5491193760.000001                       # Energy for refresh commands per rank (pJ)
system.mem_ctrls.dram.rank0.actBackEnergy   1417024560                       # Energy for active background per rank (pJ)
system.mem_ctrls.dram.rank0.preBackEnergy  25519317120                       # Energy for precharge background per rank (pJ)
system.mem_ctrls.dram.rank0.actPowerDownEnergy            0                       # Energy for active power-down per rank (pJ)
system.mem_ctrls.dram.rank0.prePowerDownEnergy            0                       # Energy for precharge power-down per rank (pJ)
system.mem_ctrls.dram.rank0.selfRefreshEnergy            0                       # Energy for self refresh per rank (pJ)
system.mem_ctrls.dram.rank0.totalEnergy   32454267030                       # Total energy per rank (pJ)
system.mem_ctrls.dram.rank0.averagePower   466.537824                       # Core power per rank (mW)
system.mem_ctrls.dram.rank0.totalIdleTime            0                       # Total Idle time Per DRAM Rank
system.mem_ctrls.dram.rank0.pwrStateTime::IDLE  66331232000                       # Time in different power states
system.mem_ctrls.dram.rank0.pwrStateTime::REF   2322840000                       # Time in different power states
system.mem_ctrls.dram.rank0.pwrStateTime::SREF            0                       # Time in different power states
system.mem_ctrls.dram.rank0.pwrStateTime::PRE_PDN            0                       # Time in different power states
system.mem_ctrls.dram.rank0.pwrStateTime::ACT    909992000                       # Time in different power states
system.mem_ctrls.dram.rank0.pwrStateTime::ACT_PDN            0                       # Time in different power states
system.mem_ctrls.dram.rank1.actEnergy         2463300                       # Energy for activate commands per rank (pJ)
system.mem_ctrls.dram.rank1.preEnergy         1309275                       # Energy for precharge commands per rank (pJ)
system.mem_ctrls.dram.rank1.readEnergy       20948760                       # Energy for read commands per rank (pJ)
system.mem_ctrls.dram.rank1.writeEnergy             0                       # Energy for write commands per rank (pJ)
system.mem_ctrls.dram.rank1.refreshEnergy 5491193760.000001                       # Energy for refresh commands per rank (pJ)
system.mem_ctrls.dram.rank1.actBackEnergy   1334704020                       # Energy for active background per rank (pJ)
system.mem_ctrls.dram.rank1.preBackEnergy  25588639680                       # Energy for precharge background per rank (pJ)
system.mem_ctrls.dram.rank1.actPowerDownEnergy            0                       # Energy for active power-down per rank (pJ)
system.mem_ctrls.dram.rank1.prePowerDownEnergy            0                       # Energy for precharge power-down per rank (pJ)
system.mem_ctrls.dram.rank1.selfRefreshEnergy            0                       # Energy for self refresh per rank (pJ)
system.mem_ctrls.dram.rank1.totalEnergy   32439258795                       # Total energy per rank (pJ)
system.mem_ctrls.dram.rank1.averagePower   466.322077                       # Core power per rank (mW)
system.mem_ctrls.dram.rank1.totalIdleTime            0                       # Total Idle time Per DRAM Rank
system.mem_ctrls.dram.rank1.pwrStateTime::IDLE  66512332500                       # Time in different power states
system.mem_ctrls.dram.rank1.pwrStateTime::REF   2322840000                       # Time in different power states
system.mem_ctrls.dram.rank1.pwrStateTime::SREF            0                       # Time in different power states
system.mem_ctrls.dram.rank1.pwrStateTime::PRE_PDN            0                       # Time in different power states
system.mem_ctrls.dram.rank1.pwrStateTime::ACT    728891500                       # Time in different power states
system.mem_ctrls.dram.rank1.pwrStateTime::ACT_PDN            0                       # Time in different power states
system.mem_ctrls.power_state.pwrStateResidencyTicks::UNDEFINED  69564064000                       # Cumulative time (in ticks) in various power states
system.membus.trans_dist::ReadResp               1169                       # Transaction distribution
system.membus.trans_dist::ReadExReq              1856                       # Transaction distribution
system.membus.trans_dist::ReadExResp             1856                       # Transaction distribution
system.membus.trans_dist::ReadSharedReq          1169                       # Transaction distribution
system.membus.pkt_count_system.l2.mem_side_port::system.mem_ctrls.port         6050                       # Packet count per connected requestor and responder (bytes)
system.membus.pkt_count::total                   6050                       # Packet count per connected requestor and responder (bytes)
system.membus.pkt_size_system.l2.mem_side_port::system.mem_ctrls.port       387200                       # Cumulative packet size per connected requestor and responder (bytes)
system.membus.pkt_size::total                  387200                       # Cumulative packet size per connected requestor and responder (bytes)
system.membus.snoops                                0                       # Total snoops (count)
system.membus.snoopTraffic                          0                       # Total snoop traffic (bytes)
system.membus.snoop_fanout::samples              3025                       # Request fanout histogram
system.membus.snoop_fanout::mean                    0                       # Request fanout histogram
system.membus.snoop_fanout::stdev                   0                       # Request fanout histogram
system.membus.snoop_fanout::underflows              0      0.00%      0.00% # Request fanout histogram
system.membus.snoop_fanout::0                    3025    100.00%    100.00% # Request fanout histogram
system.membus.snoop_fanout::1                       0      0.00%    100.00% # Request fanout histogram
system.membus.snoop_fanout::overflows               0      0.00%    100.00% # Request fanout histogram
system.membus.snoop_fanout::min_value               0                       # Request fanout histogram
system.membus.snoop_fanout::max_value               0                       # Request fanout histogram
system.membus.snoop_fanout::total                3025                       # Request fanout histogram
system.membus.power_state.pwrStateResidencyTicks::UNDEFINED  69564064000                       # Cumulative time (in ticks) in various power states
system.membus.reqLayer0.occupancy             3754000                       # Layer occupancy (ticks)
system.membus.reqLayer0.utilization               0.0                       # Layer utilization (%)
system.membus.respLayer1.occupancy           28209500                       # Layer occupancy (ticks)
system.membus.respLayer1.utilization              0.0                       # Layer utilization (%)
system.tol2bus.trans_dist::ReadResp             30465                       # Transaction distribution
system.tol2bus.trans_dist::WritebackDirty        96204                       # Transaction distribution
system.tol2bus.trans_dist::WritebackClean         3499                       # Transaction distribution
system.tol2bus.trans_dist::CleanEvict            2908                       # Transaction distribution
system.tol2bus.trans_dist::ReadExReq            72902                       # Transaction distribution
system.tol2bus.trans_dist::ReadExResp           72902                       # Transaction distribution
system.tol2bus.trans_dist::ReadCleanReq          3743                       # Transaction distribution
system.tol2bus.trans_dist::ReadSharedReq        26722                       # Transaction distribution
system.tol2bus.pkt_count_system.cpu.icache.mem_side_port::system.l2.cpu_side_port        10985                       # Packet count per connected requestor and responder (bytes)
system.tol2bus.pkt_count_system.cpu.dcache.mem_side_port::system.l2.cpu_side_port       298360                       # Packet count per connected requestor and responder (bytes)
system.tol2bus.pkt_count::total                309345                       # Packet count per connected requestor and responder (bytes)
system.tol2bus.pkt_size_system.cpu.icache.mem_side_port::system.l2.cpu_side_port       926976                       # Cumulative packet size per connected requestor and responder (bytes)
system.tol2bus.pkt_size_system.cpu.dcache.mem_side_port::system.l2.cpu_side_port     25065984                       # Cumulative packet size per connected requestor and responder (bytes)
system.tol2bus.pkt_size::total               25992960                       # Cumulative packet size per connected requestor and responder (bytes)
system.tol2bus.snoops                               0                       # Total snoops (count)
system.tol2bus.snoopTraffic                         0                       # Total snoop traffic (bytes)
system.tol2bus.snoop_fanout::samples           103367                       # Request fanout histogram
system.tol2bus.snoop_fanout::mean            0.021322                       # Request fanout histogram
system.tol2bus.snoop_fanout::stdev           0.144456                       # Request fanout histogram
system.tol2bus.snoop_fanout::underflows             0      0.00%      0.00% # Request fanout histogram
system.tol2bus.snoop_fanout::0                 101163     97.87%     97.87% # Request fanout histogram
system.tol2bus.snoop_fanout::1                   2204      2.13%    100.00% # Request fanout histogram
system.tol2bus.snoop_fanout::2                      0      0.00%    100.00% # Request fanout histogram
system.tol2bus.snoop_fanout::overflows              0      0.00%    100.00% # Request fanout histogram
system.tol2bus.snoop_fanout::min_value              0                       # Request fanout histogram
system.tol2bus.snoop_fanout::max_value              1                       # Request fanout histogram
system.tol2bus.snoop_fanout::total             103367                       # Request fanout histogram
system.tol2bus.power_state.pwrStateResidencyTicks::UNDEFINED  69564064000                       # Cumulative time (in ticks) in various power states
system.tol2bus.reqLayer0.occupancy          302395000                       # Layer occupancy (ticks)
system.tol2bus.reqLayer0.utilization              0.4                       # Layer utilization (%)
system.tol2bus.respLayer0.occupancy           9358997                       # Layer occupancy (ticks)
system.tol2bus.respLayer0.utilization             0.0                       # Layer utilization (%)
system.tol2bus.respLayer1.occupancy         249067984                       # Layer occupancy (ticks)
system.tol2bus.respLayer1.utilization             0.4                       # Layer utilization (%)
system.voltage_domain.voltage                       1                       # Voltage in Volts

---------- End Simulation Statistics   ----------
